version 2
run plain-0-20241004-10:24:54-11150
attr configname plain
attr datetime 20241004-10:24:54
attr experiment plain
attr inifile omnetpp.ini
attr iterationvars ""
attr iterationvarsf ""
attr measurement ""
attr network Scenario
attr processid 11150
attr repetition 0
attr replication #0
attr resultdir results
attr runnumber 0
attr seedset 0
param *.node[*].numApps 1
param *.node[*].app[0].typename "\"rondeboschtest.veins_inet.VeinsInetSampleApplication\""
param *.node[*].app[0].interface "\"wlan0\""
param *.node[*].wlan[0].opMode "\"p\""
param *.node[*].wlan[0].radio.typename "\"Ieee80211DimensionalRadio\""
param *.node[*].wlan[0].radio.bandName "\"5.9 GHz\""
param *.node[*].wlan[0].radio.channelNumber 3
param *.node[*].wlan[0].radio.transmitter.power 20mW
param *.node[*].wlan[0].radio.bandwidth "10 MHz"
param *.node[*].wlan[*].radio.antenna.mobility.typename "\"AttachedMobility\""
param *.node[*].wlan[*].radio.antenna.mobility.mobilityModule "\"^.^.^.^.mobility\""
param *.node[*].wlan[*].radio.antenna.mobility.offsetX -2.5m
param *.node[*].wlan[*].radio.antenna.mobility.offsetZ 1.5m
param *.node[*].wlan[*].radio.antenna.mobility.constraintAreaMinX 0m
param *.node[*].wlan[*].radio.antenna.mobility.constraintAreaMaxX 0m
param *.node[*].wlan[*].radio.antenna.mobility.constraintAreaMinY 0m
param *.node[*].wlan[*].radio.antenna.mobility.constraintAreaMaxY 0m
param *.node[*].wlan[*].radio.antenna.mobility.constraintAreaMinZ 0m
param *.node[*].wlan[*].radio.antenna.mobility.constraintAreaMaxZ 0m
param *.node[*].ipv4.configurator.typename "\"HostAutoConfigurator\""
param *.node[*].ipv4.configurator.interfaces "\"wlan0\""
param *.node[*].ipv4.configurator.mcastGroups "\"224.0.0.1\""
param *.node[*].mobility.typename "\"VeinsInetMobility\""
param *.manager.updateInterval 0.1s
param *.manager.host "\"localhost\""
param *.manager.port 9999
param *.manager.autoShutdown true
param *.manager.launchConfig "xmldoc(\"rondebosch.launchd.xml\")"
param *.manager.moduleType "\"rondeboschtest.veins_inet.VeinsInetCar\""
param *.physicalEnvironment.config "xmldoc(\"obstacles.xml\")"
param *.radioMedium.obstacleLoss.typename "\"IdealObstacleLoss\""

vector 0 Scenario.node[0].wlan[0].radio radioMode:vector ETV
attr interpolationmode sample-hold
attr source radioModeChanged
attr title "Radio mode, vector"
vector 1 Scenario.node[0].wlan[0].radio radioChannel:vector ETV
attr interpolationmode sample-hold
attr source radioChannelChanged
attr title "Radio channel, vector"
vector 2 Scenario.node[0].wlan[0].radio receptionState:vector ETV
attr interpolationmode sample-hold
attr source receptionStateChanged
attr title "Radio reception state, vector"
vector 3 Scenario.node[0].wlan[0].mac.dcf.recoveryProcedure contentionWindowChanged:vector ETV
attr interpolationmode sample-hold
attr title "contention window, vector"
vector 4 Scenario.node[1].wlan[0].radio radioMode:vector ETV
attr interpolationmode sample-hold
attr source radioModeChanged
attr title "Radio mode, vector"
vector 5 Scenario.node[1].wlan[0].radio radioChannel:vector ETV
attr interpolationmode sample-hold
attr source radioChannelChanged
attr title "Radio channel, vector"
vector 6 Scenario.node[1].wlan[0].radio receptionState:vector ETV
attr interpolationmode sample-hold
attr source receptionStateChanged
attr title "Radio reception state, vector"
vector 7 Scenario.node[1].wlan[0].mac.dcf.recoveryProcedure contentionWindowChanged:vector ETV
attr interpolationmode sample-hold
attr title "contention window, vector"
vector 8 Scenario.node[2].wlan[0].radio radioMode:vector ETV
attr interpolationmode sample-hold
attr source radioModeChanged
attr title "Radio mode, vector"
vector 9 Scenario.node[2].wlan[0].radio radioChannel:vector ETV
attr interpolationmode sample-hold
attr source radioChannelChanged
attr title "Radio channel, vector"
vector 10 Scenario.node[2].wlan[0].radio receptionState:vector ETV
attr interpolationmode sample-hold
attr source receptionStateChanged
attr title "Radio reception state, vector"
vector 11 Scenario.node[2].wlan[0].mac.dcf.recoveryProcedure contentionWindowChanged:vector ETV
attr interpolationmode sample-hold
attr title "contention window, vector"
vector 12 Scenario.node[3].wlan[0].radio radioMode:vector ETV
attr interpolationmode sample-hold
attr source radioModeChanged
attr title "Radio mode, vector"
vector 13 Scenario.node[3].wlan[0].radio radioChannel:vector ETV
attr interpolationmode sample-hold
attr source radioChannelChanged
attr title "Radio channel, vector"
vector 14 Scenario.node[3].wlan[0].radio receptionState:vector ETV
attr interpolationmode sample-hold
attr source receptionStateChanged
attr title "Radio reception state, vector"
vector 15 Scenario.node[3].wlan[0].mac.dcf.recoveryProcedure contentionWindowChanged:vector ETV
attr interpolationmode sample-hold
attr title "contention window, vector"
vector 16 Scenario.node[0].app[0] packetSent:vector(packetBytes) ETV
attr interpolationmode none
attr source packetSent
attr title "packets sent, vector(packetBytes)"
vector 17 Scenario.node[0].udp packetSent:vector(packetBytes) ETV
attr interpolationmode none
attr source packetSent
attr title "packets sent, vector(packetBytes)"
vector 18 Scenario.node[0].lo[0].lo rcvdPkFromHl:vector(packetBytes) ETV
attr interpolationmode none
attr source packetReceivedFromUpper
attr title "packets received from higher layer, vector(packetBytes)"
vector 19 Scenario.node[0].lo[0].lo passedUpPk:vector(packetBytes) ETV
attr interpolationmode none
attr source packetSentToUpper
attr title "packets passed to higher layer, vector(packetBytes)"
vector 20 Scenario.node[0].wlan[0].mac packetReceivedFromUpper:vector(packetBytes) ETV
attr interpolationmode none
attr title "packets received from upper layer, vector(packetBytes)"
vector 21 Scenario.node[0].wlan[0].mac.dcf.channelAccess.pendingQueue packetPushed:vector(packetBytes) ETV
attr interpolationmode none
attr title "packet pushed, vector(packetBytes)"
vector 22 Scenario.node[0].wlan[0].mac.dcf.channelAccess.pendingQueue queueLength:vector ETV
attr interpolationmode sample-hold
attr source "count(packetPushed) - count(packetPopped) - count(packetRemoved) - count(packetDropped)"
attr title "queue length, vector"
vector 23 Scenario.node[0].wlan[0].mac.dcf.channelAccess.contention backoffPeriodGenerated:vector ETV
attr interpolationmode none
attr title "backoff periods, vector"
vector 24 Scenario.node[0].wlan[0].mac.dcf.channelAccess.contention backoffActive:vector ETV
attr interpolationmode sample-hold
attr source count(backoffStarted)-count(backoffStopped)
attr title "backoff active, vector"
vector 25 Scenario.node[0].udp packetReceived:vector(packetBytes) ETV
attr interpolationmode none
attr source packetReceived
attr title "packets received, vector(packetBytes)"
vector 26 Scenario.node[0].udp passedUpPk:vector(count) ETV
attr interpolationmode none
attr source packetSentToUpper
attr title "packets passed up, vector(count)"
vector 27 Scenario.node[0].app[0] packetReceived:vector(packetBytes) ETV
attr interpolationmode none
attr source packetReceived
attr title "packets received, vector(packetBytes)"
vector 28 Scenario.node[0].app[0] throughput:vector ETV
attr source throughput(packetReceived)
attr title "throughput, vector"
attr unit bps
vector 29 Scenario.node[0].app[0] rcvdPkLifetime:vector ETV
attr interpolationmode none
attr source dataAge(packetReceived)
attr title "received packet lifetime, vector"
attr unit s
vector 30 Scenario.node[0].wlan[0].mac.dcf.channelAccess.pendingQueue packetPopped:vector(packetBytes) ETV
attr interpolationmode none
attr title "packet popped, vector(packetBytes)"
vector 31 Scenario.node[0].wlan[0].mac.dcf.channelAccess.pendingQueue queueingTime:vector ETV
attr interpolationmode none
attr source queueingTime(packetPopped)
attr title "queueing times, vector"
attr unit s
vector 32 Scenario.node[0].wlan[0].mac.dcf.channelAccess.inProgressFrames queueLength:vector ETV
attr interpolationmode sample-hold
attr source "count(packetEnqueued) - count(packetDequeued)"
attr title "queue length, vector"
vector 33 Scenario.node[0].wlan[0].mac.dcf datarateSelected:vector ETV
attr interpolationmode none
attr title "datarates selected, vector"
vector 34 Scenario.node[0].wlan[0].mac packetSentToLower:vector(packetBytes) ETV
attr interpolationmode none
attr title "packets sent to lower layer, vector(packetBytes)"
vector 35 Scenario.node[0].wlan[0].mac.dcf frameSequenceActive:vector ETV
attr interpolationmode sample-hold
attr source count(frameSequenceStarted)-count(frameSequenceFinished)
attr title "frame sequence active, vector"
vector 36 Scenario.node[0].wlan[0].radio transmissionState:vector ETV
attr interpolationmode sample-hold
attr source transmissionStateChanged
attr title "Radio transmission state, vector"
vector 37 Scenario.node[0].wlan[0].mac.dcf packetSentToPeer:vector(packetBytes) ETV
attr interpolationmode none
attr title "packets sent, vector(packetBytes)"
vector 38 Scenario.node[0].wlan[0].mac.dcf packetSentToPeerMulticast:vector(packetBytes) ETV
attr interpolationmode none
attr source ieee80211Multicast(packetSentToPeer)
attr title "packets sent: multicast, vector(packetBytes)"
vector 39 Scenario.node[0].wlan[0].mac.dcf packetSentToPeerWithoutRetry:vector(packetBytes) ETV
attr interpolationmode none
attr source ieee80211NotRetry(packetSentToPeer)
attr title "packets sent: without retry, vector(packetBytes)"
vector 40 Scenario.node[0].wlan[0].mac.dcf.channelAccess.inProgressFrames queueingTime:vector ETV
attr interpolationmode none
attr source queueingTime(packetDequeued)
attr title "queueing times, vector"
vector 41 Scenario.node[3].wlan[0].mac packetReceivedFromLower:vector(packetBytes) ETV
attr interpolationmode none
attr title "packets received from lower layer, vector(packetBytes)"
vector 42 Scenario.node[3].wlan[0].mac.dcf packetReceivedFromPeer:vector(packetBytes) ETV
attr interpolationmode none
attr title "packets received, vector(packetBytes)"
vector 43 Scenario.node[3].wlan[0].mac.dcf packetReceivedFromPeerMulticast:vector(packetBytes) ETV
attr interpolationmode none
attr source ieee80211Multicast(packetReceivedFromPeer)
attr title "packets received: multicast, vector(packetBytes)"
vector 44 Scenario.node[3].wlan[0].mac.dcf packetReceivedFromPeerWithoutRetry:vector(packetBytes) ETV
attr interpolationmode none
attr source ieee80211NotRetry(packetReceivedFromPeer)
attr title "packets received: without retry, vector(packetBytes)"
vector 45 Scenario.node[3].wlan[0].mac packetSentToUpper:vector(packetBytes) ETV
attr interpolationmode none
attr title "packets sent to upper layer, vector(packetBytes)"
vector 46 Scenario.node[3].udp packetReceived:vector(packetBytes) ETV
attr interpolationmode none
attr source packetReceived
attr title "packets received, vector(packetBytes)"
vector 47 Scenario.node[3].udp passedUpPk:vector(count) ETV
attr interpolationmode none
attr source packetSentToUpper
attr title "packets passed up, vector(count)"
vector 48 Scenario.node[3].app[0] packetReceived:vector(packetBytes) ETV
attr interpolationmode none
attr source packetReceived
attr title "packets received, vector(packetBytes)"
vector 49 Scenario.node[3].app[0] throughput:vector ETV
attr source throughput(packetReceived)
attr title "throughput, vector"
attr unit bps
vector 50 Scenario.node[3].app[0] rcvdPkLifetime:vector ETV
attr interpolationmode none
attr source dataAge(packetReceived)
attr title "received packet lifetime, vector"
attr unit s
vector 51 Scenario.node[3].app[0] packetSent:vector(packetBytes) ETV
attr interpolationmode none
attr source packetSent
attr title "packets sent, vector(packetBytes)"
vector 52 Scenario.node[3].udp packetSent:vector(packetBytes) ETV
attr interpolationmode none
attr source packetSent
attr title "packets sent, vector(packetBytes)"
vector 53 Scenario.node[3].lo[0].lo rcvdPkFromHl:vector(packetBytes) ETV
attr interpolationmode none
attr source packetReceivedFromUpper
attr title "packets received from higher layer, vector(packetBytes)"
vector 54 Scenario.node[3].lo[0].lo passedUpPk:vector(packetBytes) ETV
attr interpolationmode none
attr source packetSentToUpper
attr title "packets passed to higher layer, vector(packetBytes)"
vector 55 Scenario.node[3].wlan[0].mac packetReceivedFromUpper:vector(packetBytes) ETV
attr interpolationmode none
attr title "packets received from upper layer, vector(packetBytes)"
vector 56 Scenario.node[3].wlan[0].mac.dcf.channelAccess.pendingQueue packetPushed:vector(packetBytes) ETV
attr interpolationmode none
attr title "packet pushed, vector(packetBytes)"
vector 57 Scenario.node[3].wlan[0].mac.dcf.channelAccess.pendingQueue queueLength:vector ETV
attr interpolationmode sample-hold
attr source "count(packetPushed) - count(packetPopped) - count(packetRemoved) - count(packetDropped)"
attr title "queue length, vector"
vector 58 Scenario.node[3].wlan[0].mac.dcf.channelAccess.contention backoffPeriodGenerated:vector ETV
attr interpolationmode none
attr title "backoff periods, vector"
vector 59 Scenario.node[3].wlan[0].mac.dcf.channelAccess.contention backoffActive:vector ETV
attr interpolationmode sample-hold
attr source count(backoffStarted)-count(backoffStopped)
attr title "backoff active, vector"
vector 60 Scenario.node[2].wlan[0].mac packetReceivedFromLower:vector(packetBytes) ETV
attr interpolationmode none
attr title "packets received from lower layer, vector(packetBytes)"
vector 61 Scenario.node[2].wlan[0].mac.dcf packetReceivedFromPeer:vector(packetBytes) ETV
attr interpolationmode none
attr title "packets received, vector(packetBytes)"
vector 62 Scenario.node[2].wlan[0].mac.dcf packetReceivedFromPeerMulticast:vector(packetBytes) ETV
attr interpolationmode none
attr source ieee80211Multicast(packetReceivedFromPeer)
attr title "packets received: multicast, vector(packetBytes)"
vector 63 Scenario.node[2].wlan[0].mac.dcf packetReceivedFromPeerWithoutRetry:vector(packetBytes) ETV
attr interpolationmode none
attr source ieee80211NotRetry(packetReceivedFromPeer)
attr title "packets received: without retry, vector(packetBytes)"
vector 64 Scenario.node[2].wlan[0].mac packetSentToUpper:vector(packetBytes) ETV
attr interpolationmode none
attr title "packets sent to upper layer, vector(packetBytes)"
vector 65 Scenario.node[2].udp packetReceived:vector(packetBytes) ETV
attr interpolationmode none
attr source packetReceived
attr title "packets received, vector(packetBytes)"
vector 66 Scenario.node[2].udp passedUpPk:vector(count) ETV
attr interpolationmode none
attr source packetSentToUpper
attr title "packets passed up, vector(count)"
vector 67 Scenario.node[2].app[0] packetReceived:vector(packetBytes) ETV
attr interpolationmode none
attr source packetReceived
attr title "packets received, vector(packetBytes)"
vector 68 Scenario.node[2].app[0] throughput:vector ETV
attr source throughput(packetReceived)
attr title "throughput, vector"
attr unit bps
vector 69 Scenario.node[2].app[0] rcvdPkLifetime:vector ETV
attr interpolationmode none
attr source dataAge(packetReceived)
attr title "received packet lifetime, vector"
attr unit s
vector 70 Scenario.node[2].app[0] packetSent:vector(packetBytes) ETV
attr interpolationmode none
attr source packetSent
attr title "packets sent, vector(packetBytes)"
vector 71 Scenario.node[2].udp packetSent:vector(packetBytes) ETV
attr interpolationmode none
attr source packetSent
attr title "packets sent, vector(packetBytes)"
vector 72 Scenario.node[2].lo[0].lo rcvdPkFromHl:vector(packetBytes) ETV
attr interpolationmode none
attr source packetReceivedFromUpper
attr title "packets received from higher layer, vector(packetBytes)"
vector 73 Scenario.node[2].lo[0].lo passedUpPk:vector(packetBytes) ETV
attr interpolationmode none
attr source packetSentToUpper
attr title "packets passed to higher layer, vector(packetBytes)"
vector 74 Scenario.node[2].wlan[0].mac packetReceivedFromUpper:vector(packetBytes) ETV
attr interpolationmode none
attr title "packets received from upper layer, vector(packetBytes)"
vector 75 Scenario.node[2].wlan[0].mac.dcf.channelAccess.pendingQueue packetPushed:vector(packetBytes) ETV
attr interpolationmode none
attr title "packet pushed, vector(packetBytes)"
vector 76 Scenario.node[2].wlan[0].mac.dcf.channelAccess.pendingQueue queueLength:vector ETV
attr interpolationmode sample-hold
attr source "count(packetPushed) - count(packetPopped) - count(packetRemoved) - count(packetDropped)"
attr title "queue length, vector"
vector 77 Scenario.node[2].wlan[0].mac.dcf.channelAccess.contention backoffPeriodGenerated:vector ETV
attr interpolationmode none
attr title "backoff periods, vector"
vector 78 Scenario.node[2].wlan[0].mac.dcf.channelAccess.contention backoffActive:vector ETV
attr interpolationmode sample-hold
attr source count(backoffStarted)-count(backoffStopped)
attr title "backoff active, vector"
vector 79 Scenario.node[3].wlan[0].mac.dcf.channelAccess.pendingQueue packetPopped:vector(packetBytes) ETV
attr interpolationmode none
attr title "packet popped, vector(packetBytes)"
vector 80 Scenario.node[3].wlan[0].mac.dcf.channelAccess.pendingQueue queueingTime:vector ETV
attr interpolationmode none
attr source queueingTime(packetPopped)
attr title "queueing times, vector"
attr unit s
vector 81 Scenario.node[3].wlan[0].mac.dcf.channelAccess.inProgressFrames queueLength:vector ETV
attr interpolationmode sample-hold
attr source "count(packetEnqueued) - count(packetDequeued)"
attr title "queue length, vector"
vector 82 Scenario.node[3].wlan[0].mac.dcf datarateSelected:vector ETV
attr interpolationmode none
attr title "datarates selected, vector"
vector 83 Scenario.node[3].wlan[0].mac packetSentToLower:vector(packetBytes) ETV
attr interpolationmode none
attr title "packets sent to lower layer, vector(packetBytes)"
vector 84 Scenario.node[3].wlan[0].mac.dcf frameSequenceActive:vector ETV
attr interpolationmode sample-hold
attr source count(frameSequenceStarted)-count(frameSequenceFinished)
attr title "frame sequence active, vector"
vector 85 Scenario.node[3].wlan[0].radio transmissionState:vector ETV
attr interpolationmode sample-hold
attr source transmissionStateChanged
attr title "Radio transmission state, vector"
vector 86 Scenario.node[3].wlan[0].mac.dcf packetSentToPeer:vector(packetBytes) ETV
attr interpolationmode none
attr title "packets sent, vector(packetBytes)"
vector 87 Scenario.node[3].wlan[0].mac.dcf packetSentToPeerMulticast:vector(packetBytes) ETV
attr interpolationmode none
attr source ieee80211Multicast(packetSentToPeer)
attr title "packets sent: multicast, vector(packetBytes)"
vector 88 Scenario.node[3].wlan[0].mac.dcf packetSentToPeerWithoutRetry:vector(packetBytes) ETV
attr interpolationmode none
attr source ieee80211NotRetry(packetSentToPeer)
attr title "packets sent: without retry, vector(packetBytes)"
vector 89 Scenario.node[3].wlan[0].mac.dcf.channelAccess.inProgressFrames queueingTime:vector ETV
attr interpolationmode none
attr source queueingTime(packetDequeued)
attr title "queueing times, vector"
vector 90 Scenario.node[0].wlan[0].mac packetReceivedFromLower:vector(packetBytes) ETV
attr interpolationmode none
attr title "packets received from lower layer, vector(packetBytes)"
vector 91 Scenario.node[0].wlan[0].mac.dcf packetReceivedFromPeer:vector(packetBytes) ETV
attr interpolationmode none
attr title "packets received, vector(packetBytes)"
vector 92 Scenario.node[0].wlan[0].mac.dcf packetReceivedFromPeerMulticast:vector(packetBytes) ETV
attr interpolationmode none
attr source ieee80211Multicast(packetReceivedFromPeer)
attr title "packets received: multicast, vector(packetBytes)"
vector 93 Scenario.node[0].wlan[0].mac.dcf packetReceivedFromPeerWithoutRetry:vector(packetBytes) ETV
attr interpolationmode none
attr source ieee80211NotRetry(packetReceivedFromPeer)
attr title "packets received: without retry, vector(packetBytes)"
vector 94 Scenario.node[0].wlan[0].mac packetSentToUpper:vector(packetBytes) ETV
attr interpolationmode none
attr title "packets sent to upper layer, vector(packetBytes)"
vector 95 Scenario.node[2].wlan[0].mac.dcf.channelAccess.pendingQueue packetPopped:vector(packetBytes) ETV
attr interpolationmode none
attr title "packet popped, vector(packetBytes)"
vector 96 Scenario.node[2].wlan[0].mac.dcf.channelAccess.pendingQueue queueingTime:vector ETV
attr interpolationmode none
attr source queueingTime(packetPopped)
attr title "queueing times, vector"
attr unit s
vector 97 Scenario.node[2].wlan[0].mac.dcf.channelAccess.inProgressFrames queueLength:vector ETV
attr interpolationmode sample-hold
attr source "count(packetEnqueued) - count(packetDequeued)"
attr title "queue length, vector"
vector 98 Scenario.node[2].wlan[0].mac.dcf datarateSelected:vector ETV
attr interpolationmode none
attr title "datarates selected, vector"
vector 99 Scenario.node[2].wlan[0].mac packetSentToLower:vector(packetBytes) ETV
attr interpolationmode none
attr title "packets sent to lower layer, vector(packetBytes)"
vector 100 Scenario.node[2].wlan[0].mac.dcf frameSequenceActive:vector ETV
attr interpolationmode sample-hold
attr source count(frameSequenceStarted)-count(frameSequenceFinished)
attr title "frame sequence active, vector"
vector 101 Scenario.node[2].wlan[0].radio transmissionState:vector ETV
attr interpolationmode sample-hold
attr source transmissionStateChanged
attr title "Radio transmission state, vector"
vector 102 Scenario.node[2].wlan[0].mac.dcf packetSentToPeer:vector(packetBytes) ETV
attr interpolationmode none
attr title "packets sent, vector(packetBytes)"
vector 103 Scenario.node[2].wlan[0].mac.dcf packetSentToPeerMulticast:vector(packetBytes) ETV
attr interpolationmode none
attr source ieee80211Multicast(packetSentToPeer)
attr title "packets sent: multicast, vector(packetBytes)"
vector 104 Scenario.node[2].wlan[0].mac.dcf packetSentToPeerWithoutRetry:vector(packetBytes) ETV
attr interpolationmode none
attr source ieee80211NotRetry(packetSentToPeer)
attr title "packets sent: without retry, vector(packetBytes)"
vector 105 Scenario.node[2].wlan[0].mac.dcf.channelAccess.inProgressFrames queueingTime:vector ETV
attr interpolationmode none
attr source queueingTime(packetDequeued)
attr title "queueing times, vector"
53	248	20.000152249256	128
54	248	20.000152249256	128
41	241	20.000152249256	158
41	301	20.000663747768	158
41	329	20.000887879088	158
83	270	20.000288249256	158
55	251	20.000152249256	130
45	241	20.000152249256	130
45	301	20.000663747768	130
45	329	20.000887879088	130
82	270	20.000288249256	12000000
84	270	20.000288249256	1
84	276	20.000440249256	0
44	241	20.000152249256	158
44	301	20.000663747768	158
44	329	20.000887879088	158
43	241	20.000152249256	158
43	301	20.000663747768	158
43	329	20.000887879088	158
42	241	20.000152249256	158
42	301	20.000663747768	158
42	329	20.000887879088	158
88	276	20.000440249256	158
87	276	20.000440249256	158
86	276	20.000440249256	158
80	270	20.000288249256	0.000136
79	270	20.000288249256	158
56	251	20.000152249256	158
57	251	20.000152249256	1
57	270	20.000288249256	0
89	276	20.000440249256	0.000152
81	270	20.000288249256	1
81	276	20.000440249256	0
59	251	20.000152249256	1
59	269	20.000288249256	0
58	251	20.000152249256	6
15	41	3.1	15
13	41	3.1	3
12	41	3.1	0
12	41	3.1	0
12	41	3.1	2
12	271	20.000288249256	3
12	277	20.000440249256	2
14	41	3.1	1
14	235	20.000000249256	3
14	240	20.000152249256	1
14	271	20.000288249256	0
14	277	20.000440249256	1
14	295	20.000511747768	3
14	300	20.000663747768	1
14	318	20.000735879088	3
14	328	20.000887879088	1
85	271	20.000288249256	1
85	272	20.000288249256	2
85	276	20.000440249256	1
85	277	20.000440249256	0
46	244	20.000152249256	108
46	252	20.000152249256	108
46	304	20.000663747768	108
46	332	20.000887879088	108
52	246	20.000152249256	108
47	244	20.000152249256	1
47	252	20.000152249256	2
47	304	20.000663747768	3
47	332	20.000887879088	4
50	245	20.000152249256	0.000152249256
50	253	20.000152249256	0.000152249256
50	305	20.000663747768	0.000663747768
50	333	20.000887879088	0.000887879088
49	245	0.1	0
49	245	0.2	0
49	245	0.3	0
49	245	0.4	0
49	245	0.5	0
49	245	0.6	0
49	245	0.7	0
49	245	0.8	0
49	245	0.9	0
49	245	1	0
49	245	1.1	0
49	245	1.2	0
49	245	1.3	0
49	245	1.4	0
49	245	1.5	0
49	245	1.6	0
49	245	1.7	0
49	245	1.8	0
49	245	1.9	0
49	245	2	0
49	245	2.1	0
49	245	2.2	0
49	245	2.3	0
49	245	2.4	0
49	245	2.5	0
49	245	2.6	0
49	245	2.7	0
49	245	2.8	0
49	245	2.9	0
49	245	3	0
49	245	3.1	0
49	245	3.2	0
49	245	3.3	0
49	245	3.4	0
49	245	3.5	0
49	245	3.6	0
49	245	3.7	0
49	245	3.8	0
49	245	3.9	0
49	245	4	0
49	245	4.1	0
49	245	4.2	0
49	245	4.3	0
49	245	4.4	0
49	245	4.5	0
49	245	4.6	0
49	245	4.7	0
49	245	4.8	0
49	245	4.9	0
49	245	5	0
49	245	5.1	0
49	245	5.2	0
49	245	5.3	0
49	245	5.4	0
49	245	5.5	0
49	245	5.6	0
49	245	5.7	0
49	245	5.8	0
49	245	5.9	0
49	245	6	0
49	245	6.1	0
49	245	6.2	0
49	245	6.3	0
49	245	6.4	0
49	245	6.5	0
49	245	6.6	0
49	245	6.7	0
49	245	6.8	0
49	245	6.9	0
49	245	7	0
49	245	7.1	0
49	245	7.2	0
49	245	7.3	0
49	245	7.4	0
49	245	7.5	0
49	245	7.6	0
49	245	7.7	0
49	245	7.8	0
49	245	7.9	0
49	245	8	0
49	245	8.1	0
49	245	8.2	0
49	245	8.3	0
49	245	8.4	0
49	245	8.5	0
49	245	8.6	0
49	245	8.7	0
49	245	8.8	0
49	245	8.9	0
49	245	9	0
49	245	9.1	0
49	245	9.2	0
49	245	9.3	0
49	245	9.4	0
49	245	9.5	0
49	245	9.6	0
49	245	9.7	0
49	245	9.8	0
49	245	9.9	0
49	245	10	0
49	245	10.1	0
49	245	10.2	0
49	245	10.3	0
49	245	10.4	0
49	245	10.5	0
49	245	10.6	0
49	245	10.7	0
49	245	10.8	0
49	245	10.9	0
49	245	11	0
49	245	11.1	0
49	245	11.2	0
49	245	11.3	0
49	245	11.4	0
49	245	11.5	0
49	245	11.6	0
49	245	11.7	0
49	245	11.8	0
49	245	11.9	0
49	245	12	0
49	245	12.1	0
49	245	12.2	0
49	245	12.3	0
49	245	12.4	0
49	245	12.5	0
49	245	12.6	0
49	245	12.7	0
49	245	12.8	0
49	245	12.9	0
49	245	13	0
49	245	13.1	0
49	245	13.2	0
49	245	13.3	0
49	245	13.4	0
49	245	13.5	0
49	245	13.6	0
49	245	13.7	0
49	245	13.8	0
49	245	13.9	0
49	245	14	0
49	245	14.1	0
49	245	14.2	0
49	245	14.3	0
49	245	14.4	0
49	245	14.5	0
49	245	14.6	0
49	245	14.7	0
49	245	14.8	0
49	245	14.9	0
49	245	15	0
49	245	15.1	0
49	245	15.2	0
49	245	15.3	0
49	245	15.4	0
49	245	15.5	0
49	245	15.6	0
49	245	15.7	0
49	245	15.8	0
49	245	15.9	0
49	245	16	0
49	245	16.1	0
49	245	16.2	0
49	245	16.3	0
49	245	16.4	0
49	245	16.5	0
49	245	16.6	0
49	245	16.7	0
49	245	16.8	0
49	245	16.9	0
49	245	17	0
49	245	17.1	0
49	245	17.2	0
49	245	17.3	0
49	245	17.4	0
49	245	17.5	0
49	245	17.6	0
49	245	17.7	0
49	245	17.8	0
49	245	17.9	0
49	245	18	0
49	245	18.1	0
49	245	18.2	0
49	245	18.3	0
49	245	18.4	0
49	245	18.5	0
49	245	18.6	0
49	245	18.7	0
49	245	18.8	0
49	245	18.9	0
49	245	19	0
49	245	19.1	0
49	245	19.2	0
49	245	19.3	0
49	245	19.4	0
49	245	19.5	0
49	245	19.6	0
49	245	19.7	0
49	245	19.8	0
49	245	19.9	0
49	245	20	0
49	1230	20.1	32000
49	1230	20.2	0
49	1230	20.3	0
49	1230	20.4	0
49	1230	20.5	0
49	1230	20.6	0
49	1230	20.7	0
49	1230	20.8	0
49	1230	20.9	0
49	1230	21	0
49	1230	21.1	0
49	1230	21.2	0
49	1230	21.3	0
49	1230	21.4	0
49	1230	21.5	0
49	1230	21.6	0
49	1230	21.7	0
49	1230	21.8	0
49	1230	21.9	0
49	1230	22	0
49	1230	22.1	0
49	1230	22.2	0
49	1230	22.3	0
49	1230	22.4	0
49	1230	22.5	0
49	1230	22.6	0
49	1230	22.7	0
49	1230	22.8	0
49	1230	22.9	0
49	1230	23	0
49	1230	23.1	0
49	1230	23.2	0
49	1230	23.3	0
49	1230	23.4	0
49	1230	23.5	0
49	1230	23.6	0
49	1230	23.7	0
49	1230	23.8	0
49	1230	23.9	0
49	1230	24	0
49	1230	24.1	0
49	1230	24.2	0
49	1230	24.3	0
49	1230	24.4	0
49	1230	24.5	0
49	1230	24.6	0
49	1230	24.7	0
49	1230	24.8	0
49	1230	24.9	0
49	1230	25	0
49	1230	25.1	0
49	1230	25.2	0
49	1230	25.3	0
49	1230	25.4	0
49	1230	25.5	0
49	1230	25.6	0
49	1230	25.7	0
49	1230	25.8	0
49	1230	25.9	0
49	1230	26	0
49	1230	26.1	0
49	1230	26.2	0
49	1230	26.3	0
49	1230	26.4	0
49	1230	26.5	0
49	1230	26.6	0
49	1230	26.7	0
49	1230	26.8	0
49	1230	26.9	0
49	1230	27	0
49	1230	27.1	0
49	1230	27.2	0
49	1230	27.3	0
49	1230	27.4	0
49	1230	27.5	0
49	1230	27.6	0
49	1230	27.7	0
49	1230	27.8	0
49	1230	27.9	0
49	1230	28	0
49	1230	28.1	0
49	1230	28.2	0
49	1230	28.3	0
49	1230	28.4	0
49	1230	28.5	0
49	1230	28.6	0
49	1230	28.7	0
49	1230	28.8	0
49	1230	28.9	0
49	1230	29	0
49	1230	29.1	0
49	1230	29.2	0
49	1230	29.3	0
49	1230	29.4	0
49	1230	29.5	0
49	1230	29.6	0
49	1230	29.7	0
49	1230	29.8	0
49	1230	29.9	0
49	1230	30	0
49	1230	30.1	0
49	1230	30.2	0
49	1230	30.3	0
49	1230	30.4	0
49	1230	30.5	0
49	1230	30.6	0
49	1230	30.7	0
49	1230	30.8	0
49	1230	30.9	0
49	1230	31	0
49	1230	31.1	0
49	1230	31.2	0
49	1230	31.3	0
49	1230	31.4	0
49	1230	31.5	0
49	1230	31.6	0
49	1230	31.7	0
49	1230	31.8	0
49	1230	31.9	0
49	1230	32	0
49	1230	32.1	0
49	1230	32.2	0
49	1230	32.3	0
49	1230	32.4	0
49	1230	32.5	0
49	1230	32.6	0
49	1230	32.7	0
49	1230	32.8	0
49	1230	32.9	0
49	1230	33	0
49	1230	33.1	0
49	1230	33.2	0
49	1230	33.3	0
49	1230	33.4	0
49	1230	33.5	0
49	1230	33.6	0
49	1230	33.7	0
49	1230	33.8	0
49	1230	33.9	0
49	1230	34	0
49	1230	34.1	0
49	1230	34.2	0
49	1230	34.3	0
49	1230	34.4	0
49	1230	34.5	0
49	1230	34.6	0
49	1230	34.7	0
49	1230	34.8	0
49	1230	34.9	0
49	1230	35	0
49	1230	35.1	0
49	1230	35.2	0
49	1230	35.3	0
49	1230	35.4	0
49	1230	35.5	0
49	1230	35.6	0
49	1230	35.7	0
49	1230	35.8	0
49	1230	35.9	0
49	1230	36	0
49	1230	36.1	0
49	1230	36.2	0
49	1230	36.3	0
49	1230	36.4	0
49	1230	36.5	0
49	1230	36.6	0
49	1230	36.7	0
49	1230	36.8	0
49	1230	36.9	0
49	1230	37	0
49	1230	37.1	0
49	1230	37.2	0
49	1230	37.3	0
49	1230	37.4	0
49	1230	37.5	0
49	1230	37.6	0
49	1230	37.7	0
49	1230	37.8	0
49	1230	37.9	0
49	1230	38	0
49	1230	38.1	0
49	1230	38.2	0
49	1230	38.3	0
49	1230	38.4	0
49	1230	38.5	0
49	1230	38.6	0
49	1230	38.7	0
49	1230	38.8	0
49	1230	38.9	0
49	1230	39	0
49	1230	39.1	0
49	1230	39.2	0
49	1230	39.3	0
49	1230	39.4	0
49	1230	39.5	0
49	1230	39.6	0
49	1230	39.7	0
49	1230	39.8	0
49	1230	39.9	0
49	1230	40	0
49	1230	40.1	0
49	1230	40.2	0
49	1230	40.3	0
49	1230	40.4	0
49	1230	40.5	0
49	1230	40.6	0
49	1230	40.7	0
49	1230	40.8	0
49	1230	40.9	0
49	1230	41	0
49	1230	41.1	0
49	1230	41.2	0
49	1230	41.3	0
49	1230	41.4	0
49	1230	41.5	0
49	1230	41.6	0
49	1230	41.7	0
49	1230	41.8	0
49	1230	41.9	0
49	1230	42	0
49	1230	42.1	0
49	1230	42.2	0
49	1230	42.3	0
49	1230	42.4	0
49	1230	42.5	0
49	1230	42.6	0
49	1230	42.7	0
49	1230	42.8	0
49	1230	42.9	0
49	1230	43	0
49	1230	43.1	0
49	1230	43.2	0
49	1230	43.3	0
49	1230	43.4	0
49	1230	43.5	0
49	1230	43.6	0
49	1230	43.7	0
49	1230	43.8	0
49	1230	43.9	0
49	1230	44	0
49	1230	44.1	0
49	1230	44.2	0
49	1230	44.3	0
49	1230	44.4	0
49	1230	44.5	0
49	1230	44.6	0
49	1230	44.7	0
49	1230	44.8	0
49	1230	44.9	0
49	1230	45	0
49	1230	45.1	0
49	1230	45.2	0
49	1230	45.3	0
49	1230	45.4	0
49	1230	45.5	0
49	1230	45.6	0
49	1230	45.7	0
49	1230	45.8	0
49	1230	45.9	0
49	1230	46	0
49	1230	46.1	0
49	1230	46.2	0
49	1230	46.3	0
49	1230	46.4	0
49	1230	46.5	0
49	1230	46.6	0
49	1230	46.7	0
49	1230	46.8	0
49	1230	46.9	0
49	1230	47	0
49	1230	47.1	0
49	1230	47.2	0
49	1230	47.3	0
49	1230	47.4	0
49	1230	47.5	0
49	1230	47.6	0
49	1230	47.7	0
49	1230	47.8	0
49	1230	47.9	0
49	1230	48	0
49	1230	48.1	0
49	1230	48.2	0
49	1230	48.3	0
49	1230	48.4	0
49	1230	48.5	0
49	1230	48.6	0
49	1230	48.7	0
49	1230	48.8	0
49	1230	48.9	0
49	1230	49	0
49	1230	49.1	0
49	1230	49.2	0
49	1230	49.3	0
49	1230	49.4	0
49	1230	49.5	0
49	1230	49.6	0
49	1230	49.7	0
49	1230	49.8	0
49	1230	49.9	0
49	1230	50	0
49	1230	50.1	0
49	1230	50.2	0
49	1230	50.3	0
49	1230	50.4	0
49	1230	50.5	0
49	1230	50.6	0
49	1230	50.7	0
49	1230	50.8	0
49	1230	50.9	0
49	1230	51	0
49	1230	51.1	0
49	1230	51.2	0
49	1230	51.3	0
49	1230	51.4	0
49	1230	51.5	0
49	1230	51.6	0
49	1230	51.7	0
49	1230	51.8	0
49	1230	51.9	0
49	1230	52	0
49	1230	52.1	0
49	1230	52.2	0
49	1230	52.3	0
49	1230	52.4	0
49	1230	52.5	0
49	1230	52.6	0
49	1230	52.7	0
49	1230	52.8	0
49	1230	52.9	0
49	1230	53	0
49	1230	53.1	0
49	1230	53.2	0
49	1230	53.3	0
49	1230	53.4	0
49	1230	53.5	0
49	1230	53.6	0
49	1230	53.7	0
49	1230	53.8	0
49	1230	53.9	0
49	1230	54	0
49	1230	54.1	0
49	1230	54.2	0
49	1230	54.3	0
49	1230	54.4	0
49	1230	54.5	0
49	1230	54.6	0
49	1230	54.7	0
49	1230	54.8	0
49	1230	54.9	0
49	1230	55	0
49	1230	55.1	0
49	1230	55.2	0
49	1230	55.3	0
49	1230	55.4	0
49	1230	55.5	0
49	1230	55.6	0
49	1230	55.7	0
49	1230	55.8	0
49	1230	55.9	0
49	1230	56	0
49	1230	56.1	0
49	1230	56.2	0
49	1230	56.3	0
49	1230	56.4	0
49	1230	56.5	0
49	1230	56.6	0
49	1230	56.7	0
49	1230	56.8	0
49	1230	56.9	0
49	1230	57	0
49	1230	57.1	0
49	1230	57.2	0
49	1230	57.3	0
49	1230	57.4	0
49	1230	57.5	0
49	1230	57.6	0
49	1230	57.7	0
49	1230	57.8	0
49	1230	57.9	0
49	1230	58	0
49	1230	58.1	0
49	1230	58.2	0
49	1230	58.3	0
49	1230	58.4	0
49	1230	58.5	0
49	1230	58.6	0
49	1230	58.7	0
49	1230	58.8	0
49	1230	58.9	0
49	1230	59	0
49	1230	59.1	0
49	1230	59.2	0
49	1230	59.3	0
49	1230	59.4	0
49	1230	59.5	0
49	1230	59.6	0
49	1230	59.7	0
49	1230	59.8	0
49	1230	59.9	0
49	1230	60	0
49	1230	60.1	0
49	1230	60.2	0
49	1230	60.3	0
49	1230	60.4	0
49	1230	60.5	0
49	1230	60.6	0
49	1230	60.7	0
49	1230	60.8	0
49	1230	60.9	0
49	1230	61	0
49	1230	61.1	0
49	1230	61.2	0
49	1230	61.3	0
49	1230	61.4	0
49	1230	61.5	0
49	1230	61.6	0
49	1230	61.7	0
49	1230	61.8	0
49	1230	61.9	0
49	1230	62	0
49	1230	62.1	0
49	1230	62.2	0
49	1230	62.3	0
49	1230	62.4	0
49	1230	62.5	0
49	1230	62.6	0
49	1230	62.7	0
49	1230	62.8	0
49	1230	62.9	0
49	1230	63	0
49	1230	63.1	0
49	1230	63.2	0
49	1230	63.3	0
49	1230	63.4	0
49	1230	63.5	0
49	1230	63.6	0
49	1230	63.7	0
49	1230	63.8	0
49	1230	63.9	0
49	1230	64	0
49	1230	64.1	0
49	1230	64.2	0
49	1230	64.3	0
49	1230	64.4	0
49	1230	64.5	0
49	1230	64.6	0
49	1230	64.7	0
49	1230	64.8	0
49	1230	64.9	0
49	1230	65	0
49	1230	65.1	0
49	1230	65.2	0
49	1230	65.3	0
49	1230	65.4	0
49	1230	65.5	0
49	1230	65.6	0
49	1230	65.7	0
49	1230	65.8	0
49	1230	65.9	0
49	1230	66	0
49	1230	66.1	0
49	1230	66.2	0
49	1230	66.3	0
49	1230	66.4	0
49	1230	66.5	0
49	1230	66.6	0
49	1230	66.7	0
49	1230	66.8	0
49	1230	66.9	0
49	1230	67	0
49	1230	67.1	0
49	1230	67.2	0
49	1230	67.3	0
49	1230	67.4	0
49	1230	67.5	0
49	1230	67.6	0
49	1230	67.7	0
49	1230	67.8	0
49	1230	67.9	0
49	1230	68	0
49	1230	68.1	0
49	1230	68.2	0
49	1230	68.3	0
49	1230	68.4	0
49	1230	68.5	0
49	1230	68.6	0
49	1230	68.7	0
49	1230	68.8	0
49	1230	68.9	0
49	1230	69	0
49	1230	69.1	0
49	1230	69.2	0
49	1230	69.3	0
49	1230	69.4	0
49	1230	69.5	0
49	1230	69.6	0
49	1230	69.7	0
49	1230	69.8	0
49	1230	69.9	0
49	1230	70	0
49	1230	70.1	0
49	1230	70.2	0
49	1230	70.3	0
49	1230	70.4	0
49	1230	70.5	0
49	1230	70.6	0
49	1230	70.7	0
49	1230	70.8	0
49	1230	70.9	0
49	1230	71	0
49	1230	71.1	0
49	1230	71.2	0
49	1230	71.3	0
49	1230	71.4	0
49	1230	71.5	0
49	1230	71.6	0
49	1230	71.7	0
49	1230	71.8	0
49	1230	71.9	0
49	1230	72	0
49	1230	72.1	0
49	1230	72.2	0
49	1230	72.3	0
49	1230	72.4	0
49	1230	72.5	0
49	1230	72.6	0
49	1230	72.7	0
49	1230	72.8	0
49	1230	72.9	0
49	1230	73	0
49	1230	73.1	0
49	1230	73.2	0
49	1230	73.3	0
49	1230	73.4	0
49	1230	73.5	0
49	1230	73.6	0
49	1230	73.7	0
49	1230	73.8	0
49	1230	73.9	0
49	1230	74	0
49	1230	74.1	0
49	1230	74.2	0
49	1230	74.3	0
49	1230	74.4	0
49	1230	74.5	0
49	1230	74.6	0
49	1230	74.7	0
49	1230	74.8	0
49	1230	74.9	0
49	1230	75	0
49	1230	75.1	0
49	1230	75.2	0
49	1230	75.3	0
49	1230	75.4	0
49	1230	75.5	0
49	1230	75.6	0
49	1230	75.7	0
49	1230	75.8	0
49	1230	75.9	0
49	1230	76	0
49	1230	76.1	0
49	1230	76.2	0
49	1230	76.3	0
49	1230	76.4	0
49	1230	76.5	0
49	1230	76.6	0
49	1230	76.7	0
49	1230	76.8	0
49	1230	76.9	0
49	1230	77	0
49	1230	77.1	0
49	1230	77.2	0
49	1230	77.3	0
49	1230	77.4	0
49	1230	77.5	0
49	1230	77.6	0
49	1230	77.7	0
49	1230	77.8	0
49	1230	77.9	0
49	1230	78	0
49	1230	78.1	0
49	1230	78.2	0
49	1230	78.3	0
49	1230	78.4	0
49	1230	78.5	0
49	1230	78.6	0
49	1230	78.7	0
49	1230	78.8	0
49	1230	78.9	0
49	1230	79	0
49	1230	79.1	0
49	1230	79.2	0
49	1230	79.3	0
49	1230	79.4	0
49	1230	79.5	0
49	1230	79.6	0
49	1230	79.7	0
49	1230	79.8	0
49	1230	79.9	0
49	1230	80	0
49	1230	80.1	0
49	1230	80.2	0
49	1230	80.3	0
49	1230	80.4	0
49	1230	80.5	0
49	1230	80.6	0
49	1230	80.7	0
49	1230	80.8	0
49	1230	80.9	0
49	1230	81	0
49	1230	81.1	0
49	1230	81.2	0
49	1230	81.3	0
49	1230	81.4	0
49	1230	81.5	0
49	1230	81.6	0
49	1230	81.7	0
49	1230	81.8	0
49	1230	81.9	0
49	1230	82	0
49	1230	82.1	0
49	1230	82.2	0
49	1230	82.3	0
49	1230	82.4	0
49	1230	82.5	0
49	1230	82.6	0
49	1230	82.7	0
49	1230	82.8	0
49	1230	82.9	0
49	1230	83	0
49	1230	83.1	0
49	1230	83.2	0
49	1230	83.3	0
49	1230	83.4	0
49	1230	83.5	0
49	1230	83.6	0
49	1230	83.7	0
49	1230	83.8	0
49	1230	83.9	0
49	1230	84	0
49	1230	84.1	0
49	1230	84.2	0
49	1230	84.3	0
49	1230	84.4	0
49	1230	84.5	0
49	1230	84.6	0
49	1230	84.7	0
49	1230	84.8	0
49	1230	84.9	0
49	1230	85	0
49	1230	85.1	0
49	1230	85.2	0
49	1230	85.3	0
49	1230	85.4	0
49	1230	85.5	0
49	1230	85.6	0
49	1230	85.7	0
49	1230	85.8	0
49	1230	85.9	0
49	1230	86	0
49	1230	86.1	0
49	1230	86.2	0
49	1230	86.3	0
49	1230	86.4	0
49	1230	86.5	0
49	1230	86.6	0
49	1230	86.7	0
49	1230	86.8	0
49	1230	86.9	0
49	1230	87	0
49	1230	87.1	0
49	1230	87.2	0
49	1230	87.3	0
49	1230	87.4	0
49	1230	87.5	0
49	1230	87.6	0
49	1230	87.7	0
49	1230	87.8	0
49	1230	87.9	0
49	1230	88	0
49	1230	88.1	0
49	1230	88.2	0
49	1230	88.3	0
49	1230	88.4	0
49	1230	88.5	0
49	1230	88.6	0
49	1230	88.7	0
49	1230	88.8	0
49	1230	88.9	0
49	1230	89	0
49	1230	89.1	0
49	1230	89.2	0
49	1230	89.3	0
49	1230	89.4	0
49	1230	89.5	0
49	1230	89.6	0
49	1230	89.7	0
49	1230	89.8	0
49	1230	89.9	0
49	1230	90	0
49	1230	90.1	0
49	1230	90.2	0
49	1230	90.3	0
49	1230	90.4	0
49	1230	90.5	0
49	1230	90.6	0
49	1230	90.7	0
49	1230	90.8	0
49	1230	90.9	0
49	1230	91	0
49	1230	91.1	0
49	1230	91.2	0
49	1230	91.3	0
49	1230	91.4	0
49	1230	91.5	0
49	1230	91.6	0
49	1230	91.7	0
49	1230	91.8	0
49	1230	91.9	0
49	1230	92	0
49	1230	92.1	0
49	1230	92.2	0
49	1230	92.3	0
49	1230	92.4	0
49	1230	92.5	0
49	1230	92.6	0
49	1230	92.7	0
49	1230	92.8	0
49	1230	92.9	0
49	1230	93	0
49	1230	93.1	0
49	1230	93.2	0
49	1230	93.3	0
49	1230	93.4	0
49	1230	93.5	0
49	1230	93.6	0
49	1230	93.7	0
49	1230	93.8	0
49	1230	93.9	0
49	1230	94	0
49	1230	94.1	0
49	1230	94.2	0
49	1230	94.3	0
49	1230	94.4	0
49	1230	94.5	0
49	1230	94.6	0
49	1230	94.7	0
49	1230	94.8	0
49	1230	94.9	0
49	1230	95	0
49	1230	95.1	0
49	1230	95.2	0
49	1230	95.3	0
49	1230	95.4	0
49	1230	95.5	0
49	1230	95.6	0
49	1230	95.7	0
49	1230	95.8	0
49	1230	95.9	0
49	1230	96	0
49	1230	96.1	0
49	1230	96.2	0
49	1230	96.3	0
49	1230	96.4	0
49	1230	96.5	0
49	1230	96.6	0
49	1230	96.7	0
49	1230	96.8	0
49	1230	96.9	0
49	1230	97	0
49	1230	97.1	0
49	1230	97.2	0
49	1230	97.3	0
49	1230	97.4	0
49	1230	97.5	0
49	1230	97.6	0
49	1230	97.7	0
49	1230	97.8	0
49	1230	97.9	0
49	1230	98	0
49	1230	98.1	0
49	1230	98.2	0
49	1230	98.3	0
49	1230	98.4	0
49	1230	98.5	0
49	1230	98.6	0
49	1230	98.7	0
49	1230	98.8	0
49	1230	98.9	0
49	1230	99	0
49	1230	99.1	0
49	1230	99.2	0
49	1230	99.3	0
49	1230	99.4	0
49	1230	99.5	0
49	1230	99.6	0
49	1230	99.7	0
49	1230	99.8	0
49	1230	99.9	0
49	1230	100	0
49	1230	100.1	0
49	1230	100.2	0
49	1230	100.3	0
49	1230	100.4	0
49	1230	100.5	0
49	1230	100.6	0
49	1230	100.7	0
49	1230	100.8	0
49	1230	100.9	0
49	1230	101	0
49	1230	101.1	0
49	1230	101.2	0
49	1230	101.3	0
49	1230	101.4	0
49	1230	101.5	0
49	1230	101.6	0
49	1230	101.7	0
49	1230	101.8	0
49	1230	101.9	0
49	1230	102	0
49	1230	102.1	0
49	1230	102.2	0
49	1230	102.3	0
49	1230	102.4	0
49	1230	102.5	0
49	1230	102.6	0
49	1230	102.7	0
49	1230	102.8	0
49	1230	102.9	0
49	1230	103	0
49	1230	103.1	0
49	1230	103.2	0
49	1230	103.3	0
49	1230	103.4	0
49	1230	103.5	0
49	1230	103.6	0
49	1230	103.7	0
49	1230	103.8	0
49	1230	103.9	0
49	1230	104	0
49	1230	104.1	0
49	1230	104.2	0
49	1230	104.3	0
49	1230	104.4	0
49	1230	104.5	0
49	1230	104.6	0
49	1230	104.7	0
49	1230	104.8	0
49	1230	104.9	0
49	1230	105	0
49	1230	105.1	0
49	1230	105.2	0
49	1230	105.3	0
49	1230	105.4	0
49	1230	105.5	0
49	1230	105.6	0
49	1230	105.7	0
49	1230	105.8	0
49	1230	105.9	0
49	1230	106	0
49	1230	106.1	0
49	1230	106.2	0
49	1230	106.3	0
49	1230	106.4	0
49	1230	106.5	0
49	1230	106.6	0
49	1230	106.7	0
49	1230	106.8	0
49	1230	106.9	0
49	1230	107	0
49	1230	107.1	0
49	1230	107.2	0
49	1230	107.3	0
49	1230	107.4	0
49	1230	107.5	0
49	1230	107.6	0
49	1230	107.7	0
49	1230	107.8	0
49	1230	107.9	0
49	1230	108	0
49	1230	108.1	0
49	1230	108.2	0
49	1230	108.3	0
49	1230	108.4	0
49	1230	108.5	0
49	1230	108.6	0
49	1230	108.7	0
49	1230	108.8	0
49	1230	108.9	0
49	1230	109	0
49	1230	109.1	0
48	245	20.000152249256	100
48	253	20.000152249256	100
48	305	20.000663747768	100
48	333	20.000887879088	100
51	245	20.000152249256	100
18	217	20	128
18	225	20	128
19	217	20	128
19	225	20	128
90	279	20.000440498512	158
90	323	20.000887787988	158
34	232	20	158
34	292	20.000511498512	158
20	220	20	130
20	228	20	130
94	279	20.000440498512	130
94	323	20.000887787988	130
33	232	20	12000000
33	292	20.000511498512	12000000
35	232	20	1
35	238	20.000152	0
35	292	20.000511498512	1
35	298	20.000663498512	0
93	279	20.000440498512	158
93	323	20.000887787988	158
92	279	20.000440498512	158
92	323	20.000887787988	158
91	279	20.000440498512	158
91	323	20.000887787988	158
39	238	20.000152	158
39	298	20.000663498512	158
38	238	20.000152	158
38	298	20.000663498512	158
37	238	20.000152	158
37	298	20.000663498512	158
31	232	20	0
31	232	20	0
30	232	20	158
30	232	20	158
21	220	20	158
21	228	20	158
22	220	20	1
22	228	20	2
22	232	20	1
22	232	20	0
40	238	20.000152	0.000152
40	298	20.000663498512	0.000663498512
32	232	20	1
32	232	20	2
32	238	20.000152	1
32	298	20.000663498512	0
24	220	20	1
24	231	20	0
24	239	20.000152	1
24	273	20.000288498512	0
24	278	20.000440498512	1
24	291	20.000511498512	0
23	220	20	4
23	238	20.000152	7
3	2	0.1	15
1	2	0.1	3
0	2	0.1	0
0	2	0.1	0
0	2	0.1	2
0	233	20	3
0	239	20.000152	2
0	293	20.000511498512	3
0	299	20.000663498512	2
2	2	0.1	1
2	233	20	0
2	239	20.000152	1
2	273	20.000288498512	3
2	278	20.000440498512	1
2	293	20.000511498512	0
2	299	20.000663498512	1
2	317	20.000735787988	3
2	322	20.000887787988	1
36	233	20	1
36	234	20	2
36	238	20.000152	1
36	239	20.000152	0
36	293	20.000511498512	1
36	294	20.000511498512	2
36	298	20.000663498512	1
36	299	20.000663498512	0
25	221	20	108
25	229	20	108
25	282	20.000440498512	108
25	326	20.000887787988	108
17	215	20	108
17	223	20	108
26	221	20	1
26	229	20	2
26	282	20.000440498512	3
26	326	20.000887787988	4
29	222	20	0
29	230	20	0
29	283	20.000440498512	0.000440498512
29	327	20.000887787988	0.000887787988
28	222	0.1	0
28	222	0.2	0
28	222	0.3	0
28	222	0.4	0
28	222	0.5	0
28	222	0.6	0
28	222	0.7	0
28	222	0.8	0
28	222	0.9	0
28	222	1	0
28	222	1.1	0
28	222	1.2	0
28	222	1.3	0
28	222	1.4	0
28	222	1.5	0
28	222	1.6	0
28	222	1.7	0
28	222	1.8	0
28	222	1.9	0
28	222	2	0
28	222	2.1	0
28	222	2.2	0
28	222	2.3	0
28	222	2.4	0
28	222	2.5	0
28	222	2.6	0
28	222	2.7	0
28	222	2.8	0
28	222	2.9	0
28	222	3	0
28	222	3.1	0
28	222	3.2	0
28	222	3.3	0
28	222	3.4	0
28	222	3.5	0
28	222	3.6	0
28	222	3.7	0
28	222	3.8	0
28	222	3.9	0
28	222	4	0
28	222	4.1	0
28	222	4.2	0
28	222	4.3	0
28	222	4.4	0
28	222	4.5	0
28	222	4.6	0
28	222	4.7	0
28	222	4.8	0
28	222	4.9	0
28	222	5	0
28	222	5.1	0
28	222	5.2	0
28	222	5.3	0
28	222	5.4	0
28	222	5.5	0
28	222	5.6	0
28	222	5.7	0
28	222	5.8	0
28	222	5.9	0
28	222	6	0
28	222	6.1	0
28	222	6.2	0
28	222	6.3	0
28	222	6.4	0
28	222	6.5	0
28	222	6.6	0
28	222	6.7	0
28	222	6.8	0
28	222	6.9	0
28	222	7	0
28	222	7.1	0
28	222	7.2	0
28	222	7.3	0
28	222	7.4	0
28	222	7.5	0
28	222	7.6	0
28	222	7.7	0
28	222	7.8	0
28	222	7.9	0
28	222	8	0
28	222	8.1	0
28	222	8.2	0
28	222	8.3	0
28	222	8.4	0
28	222	8.5	0
28	222	8.6	0
28	222	8.7	0
28	222	8.8	0
28	222	8.9	0
28	222	9	0
28	222	9.1	0
28	222	9.2	0
28	222	9.3	0
28	222	9.4	0
28	222	9.5	0
28	222	9.6	0
28	222	9.7	0
28	222	9.8	0
28	222	9.9	0
28	222	10	0
28	222	10.1	0
28	222	10.2	0
28	222	10.3	0
28	222	10.4	0
28	222	10.5	0
28	222	10.6	0
28	222	10.7	0
28	222	10.8	0
28	222	10.9	0
28	222	11	0
28	222	11.1	0
28	222	11.2	0
28	222	11.3	0
28	222	11.4	0
28	222	11.5	0
28	222	11.6	0
28	222	11.7	0
28	222	11.8	0
28	222	11.9	0
28	222	12	0
28	222	12.1	0
28	222	12.2	0
28	222	12.3	0
28	222	12.4	0
28	222	12.5	0
28	222	12.6	0
28	222	12.7	0
28	222	12.8	0
28	222	12.9	0
28	222	13	0
28	222	13.1	0
28	222	13.2	0
28	222	13.3	0
28	222	13.4	0
28	222	13.5	0
28	222	13.6	0
28	222	13.7	0
28	222	13.8	0
28	222	13.9	0
28	222	14	0
28	222	14.1	0
28	222	14.2	0
28	222	14.3	0
28	222	14.4	0
28	222	14.5	0
28	222	14.6	0
28	222	14.7	0
28	222	14.8	0
28	222	14.9	0
28	222	15	0
28	222	15.1	0
28	222	15.2	0
28	222	15.3	0
28	222	15.4	0
28	222	15.5	0
28	222	15.6	0
28	222	15.7	0
28	222	15.8	0
28	222	15.9	0
28	222	16	0
28	222	16.1	0
28	222	16.2	0
28	222	16.3	0
28	222	16.4	0
28	222	16.5	0
28	222	16.6	0
28	222	16.7	0
28	222	16.8	0
28	222	16.9	0
28	222	17	0
28	222	17.1	0
28	222	17.2	0
28	222	17.3	0
28	222	17.4	0
28	222	17.5	0
28	222	17.6	0
28	222	17.7	0
28	222	17.8	0
28	222	17.9	0
28	222	18	0
28	222	18.1	0
28	222	18.2	0
28	222	18.3	0
28	222	18.4	0
28	222	18.5	0
28	222	18.6	0
28	222	18.7	0
28	222	18.8	0
28	222	18.9	0
28	222	19	0
28	222	19.1	0
28	222	19.2	0
28	222	19.3	0
28	222	19.4	0
28	222	19.5	0
28	222	19.6	0
28	222	19.7	0
28	222	19.8	0
28	222	19.9	0
28	222	20	0
28	1260	20.1	32000
28	1260	20.2	0
28	1260	20.3	0
28	1260	20.4	0
28	1260	20.5	0
28	1260	20.6	0
28	1260	20.7	0
28	1260	20.8	0
28	1260	20.9	0
28	1260	21	0
28	1260	21.1	0
28	1260	21.2	0
28	1260	21.3	0
28	1260	21.4	0
28	1260	21.5	0
28	1260	21.6	0
28	1260	21.7	0
28	1260	21.8	0
28	1260	21.9	0
28	1260	22	0
28	1260	22.1	0
28	1260	22.2	0
28	1260	22.3	0
28	1260	22.4	0
28	1260	22.5	0
28	1260	22.6	0
28	1260	22.7	0
28	1260	22.8	0
28	1260	22.9	0
28	1260	23	0
28	1260	23.1	0
28	1260	23.2	0
28	1260	23.3	0
28	1260	23.4	0
28	1260	23.5	0
28	1260	23.6	0
28	1260	23.7	0
28	1260	23.8	0
28	1260	23.9	0
28	1260	24	0
28	1260	24.1	0
28	1260	24.2	0
28	1260	24.3	0
28	1260	24.4	0
28	1260	24.5	0
28	1260	24.6	0
28	1260	24.7	0
28	1260	24.8	0
28	1260	24.9	0
28	1260	25	0
28	1260	25.1	0
28	1260	25.2	0
28	1260	25.3	0
28	1260	25.4	0
28	1260	25.5	0
28	1260	25.6	0
28	1260	25.7	0
28	1260	25.8	0
28	1260	25.9	0
28	1260	26	0
28	1260	26.1	0
28	1260	26.2	0
28	1260	26.3	0
28	1260	26.4	0
28	1260	26.5	0
28	1260	26.6	0
28	1260	26.7	0
28	1260	26.8	0
28	1260	26.9	0
28	1260	27	0
28	1260	27.1	0
28	1260	27.2	0
28	1260	27.3	0
28	1260	27.4	0
28	1260	27.5	0
28	1260	27.6	0
28	1260	27.7	0
28	1260	27.8	0
28	1260	27.9	0
28	1260	28	0
28	1260	28.1	0
28	1260	28.2	0
28	1260	28.3	0
28	1260	28.4	0
28	1260	28.5	0
28	1260	28.6	0
28	1260	28.7	0
28	1260	28.8	0
28	1260	28.9	0
28	1260	29	0
28	1260	29.1	0
28	1260	29.2	0
28	1260	29.3	0
28	1260	29.4	0
28	1260	29.5	0
28	1260	29.6	0
28	1260	29.7	0
28	1260	29.8	0
28	1260	29.9	0
28	1260	30	0
28	1260	30.1	0
28	1260	30.2	0
28	1260	30.3	0
28	1260	30.4	0
28	1260	30.5	0
28	1260	30.6	0
28	1260	30.7	0
28	1260	30.8	0
28	1260	30.9	0
28	1260	31	0
28	1260	31.1	0
28	1260	31.2	0
28	1260	31.3	0
28	1260	31.4	0
28	1260	31.5	0
28	1260	31.6	0
28	1260	31.7	0
28	1260	31.8	0
28	1260	31.9	0
28	1260	32	0
28	1260	32.1	0
28	1260	32.2	0
28	1260	32.3	0
28	1260	32.4	0
28	1260	32.5	0
28	1260	32.6	0
28	1260	32.7	0
28	1260	32.8	0
28	1260	32.9	0
28	1260	33	0
28	1260	33.1	0
28	1260	33.2	0
28	1260	33.3	0
28	1260	33.4	0
28	1260	33.5	0
28	1260	33.6	0
28	1260	33.7	0
28	1260	33.8	0
28	1260	33.9	0
28	1260	34	0
28	1260	34.1	0
28	1260	34.2	0
28	1260	34.3	0
28	1260	34.4	0
28	1260	34.5	0
28	1260	34.6	0
28	1260	34.7	0
28	1260	34.8	0
28	1260	34.9	0
28	1260	35	0
28	1260	35.1	0
28	1260	35.2	0
28	1260	35.3	0
28	1260	35.4	0
28	1260	35.5	0
28	1260	35.6	0
28	1260	35.7	0
28	1260	35.8	0
28	1260	35.9	0
28	1260	36	0
28	1260	36.1	0
28	1260	36.2	0
28	1260	36.3	0
28	1260	36.4	0
28	1260	36.5	0
28	1260	36.6	0
28	1260	36.7	0
28	1260	36.8	0
28	1260	36.9	0
28	1260	37	0
28	1260	37.1	0
28	1260	37.2	0
28	1260	37.3	0
28	1260	37.4	0
28	1260	37.5	0
28	1260	37.6	0
28	1260	37.7	0
28	1260	37.8	0
28	1260	37.9	0
28	1260	38	0
28	1260	38.1	0
28	1260	38.2	0
28	1260	38.3	0
28	1260	38.4	0
28	1260	38.5	0
28	1260	38.6	0
28	1260	38.7	0
28	1260	38.8	0
28	1260	38.9	0
28	1260	39	0
28	1260	39.1	0
28	1260	39.2	0
28	1260	39.3	0
28	1260	39.4	0
28	1260	39.5	0
28	1260	39.6	0
28	1260	39.7	0
28	1260	39.8	0
28	1260	39.9	0
28	1260	40	0
28	1260	40.1	0
28	1260	40.2	0
28	1260	40.3	0
28	1260	40.4	0
28	1260	40.5	0
28	1260	40.6	0
28	1260	40.7	0
28	1260	40.8	0
28	1260	40.9	0
28	1260	41	0
28	1260	41.1	0
28	1260	41.2	0
28	1260	41.3	0
28	1260	41.4	0
28	1260	41.5	0
28	1260	41.6	0
28	1260	41.7	0
28	1260	41.8	0
28	1260	41.9	0
28	1260	42	0
28	1260	42.1	0
28	1260	42.2	0
28	1260	42.3	0
28	1260	42.4	0
28	1260	42.5	0
28	1260	42.6	0
28	1260	42.7	0
28	1260	42.8	0
28	1260	42.9	0
28	1260	43	0
28	1260	43.1	0
28	1260	43.2	0
28	1260	43.3	0
28	1260	43.4	0
28	1260	43.5	0
28	1260	43.6	0
28	1260	43.7	0
28	1260	43.8	0
28	1260	43.9	0
28	1260	44	0
28	1260	44.1	0
28	1260	44.2	0
28	1260	44.3	0
28	1260	44.4	0
28	1260	44.5	0
28	1260	44.6	0
28	1260	44.7	0
28	1260	44.8	0
28	1260	44.9	0
28	1260	45	0
28	1260	45.1	0
28	1260	45.2	0
28	1260	45.3	0
28	1260	45.4	0
28	1260	45.5	0
28	1260	45.6	0
28	1260	45.7	0
28	1260	45.8	0
28	1260	45.9	0
28	1260	46	0
28	1260	46.1	0
28	1260	46.2	0
28	1260	46.3	0
28	1260	46.4	0
28	1260	46.5	0
28	1260	46.6	0
28	1260	46.7	0
28	1260	46.8	0
28	1260	46.9	0
28	1260	47	0
28	1260	47.1	0
28	1260	47.2	0
28	1260	47.3	0
28	1260	47.4	0
28	1260	47.5	0
28	1260	47.6	0
28	1260	47.7	0
28	1260	47.8	0
28	1260	47.9	0
28	1260	48	0
28	1260	48.1	0
28	1260	48.2	0
28	1260	48.3	0
28	1260	48.4	0
28	1260	48.5	0
28	1260	48.6	0
28	1260	48.7	0
28	1260	48.8	0
28	1260	48.9	0
28	1260	49	0
28	1260	49.1	0
28	1260	49.2	0
28	1260	49.3	0
28	1260	49.4	0
28	1260	49.5	0
28	1260	49.6	0
28	1260	49.7	0
28	1260	49.8	0
28	1260	49.9	0
28	1260	50	0
28	1260	50.1	0
28	1260	50.2	0
28	1260	50.3	0
28	1260	50.4	0
28	1260	50.5	0
28	1260	50.6	0
28	1260	50.7	0
28	1260	50.8	0
28	1260	50.9	0
28	1260	51	0
28	1260	51.1	0
28	1260	51.2	0
28	1260	51.3	0
28	1260	51.4	0
28	1260	51.5	0
28	1260	51.6	0
28	1260	51.7	0
28	1260	51.8	0
28	1260	51.9	0
28	1260	52	0
28	1260	52.1	0
28	1260	52.2	0
28	1260	52.3	0
28	1260	52.4	0
28	1260	52.5	0
28	1260	52.6	0
28	1260	52.7	0
28	1260	52.8	0
28	1260	52.9	0
28	1260	53	0
28	1260	53.1	0
28	1260	53.2	0
28	1260	53.3	0
28	1260	53.4	0
28	1260	53.5	0
28	1260	53.6	0
28	1260	53.7	0
28	1260	53.8	0
28	1260	53.9	0
28	1260	54	0
28	1260	54.1	0
28	1260	54.2	0
28	1260	54.3	0
28	1260	54.4	0
28	1260	54.5	0
28	1260	54.6	0
28	1260	54.7	0
28	1260	54.8	0
28	1260	54.9	0
28	1260	55	0
28	1260	55.1	0
28	1260	55.2	0
28	1260	55.3	0
28	1260	55.4	0
28	1260	55.5	0
28	1260	55.6	0
28	1260	55.7	0
28	1260	55.8	0
28	1260	55.9	0
28	1260	56	0
28	1260	56.1	0
28	1260	56.2	0
28	1260	56.3	0
28	1260	56.4	0
28	1260	56.5	0
28	1260	56.6	0
28	1260	56.7	0
28	1260	56.8	0
28	1260	56.9	0
28	1260	57	0
28	1260	57.1	0
28	1260	57.2	0
28	1260	57.3	0
28	1260	57.4	0
28	1260	57.5	0
28	1260	57.6	0
28	1260	57.7	0
28	1260	57.8	0
28	1260	57.9	0
28	1260	58	0
28	1260	58.1	0
28	1260	58.2	0
28	1260	58.3	0
28	1260	58.4	0
28	1260	58.5	0
28	1260	58.6	0
28	1260	58.7	0
28	1260	58.8	0
28	1260	58.9	0
28	1260	59	0
28	1260	59.1	0
28	1260	59.2	0
28	1260	59.3	0
28	1260	59.4	0
28	1260	59.5	0
28	1260	59.6	0
28	1260	59.7	0
28	1260	59.8	0
28	1260	59.9	0
28	1260	60	0
28	1260	60.1	0
28	1260	60.2	0
28	1260	60.3	0
28	1260	60.4	0
28	1260	60.5	0
28	1260	60.6	0
28	1260	60.7	0
28	1260	60.8	0
28	1260	60.9	0
28	1260	61	0
28	1260	61.1	0
28	1260	61.2	0
28	1260	61.3	0
28	1260	61.4	0
28	1260	61.5	0
28	1260	61.6	0
28	1260	61.7	0
28	1260	61.8	0
28	1260	61.9	0
28	1260	62	0
28	1260	62.1	0
28	1260	62.2	0
28	1260	62.3	0
28	1260	62.4	0
28	1260	62.5	0
28	1260	62.6	0
28	1260	62.7	0
28	1260	62.8	0
28	1260	62.9	0
28	1260	63	0
28	1260	63.1	0
28	1260	63.2	0
28	1260	63.3	0
28	1260	63.4	0
28	1260	63.5	0
28	1260	63.6	0
28	1260	63.7	0
28	1260	63.8	0
28	1260	63.9	0
28	1260	64	0
28	1260	64.1	0
28	1260	64.2	0
28	1260	64.3	0
28	1260	64.4	0
28	1260	64.5	0
28	1260	64.6	0
28	1260	64.7	0
28	1260	64.8	0
28	1260	64.9	0
28	1260	65	0
28	1260	65.1	0
28	1260	65.2	0
28	1260	65.3	0
28	1260	65.4	0
28	1260	65.5	0
28	1260	65.6	0
28	1260	65.7	0
28	1260	65.8	0
28	1260	65.9	0
28	1260	66	0
28	1260	66.1	0
28	1260	66.2	0
28	1260	66.3	0
28	1260	66.4	0
28	1260	66.5	0
28	1260	66.6	0
28	1260	66.7	0
28	1260	66.8	0
28	1260	66.9	0
28	1260	67	0
28	1260	67.1	0
28	1260	67.2	0
28	1260	67.3	0
28	1260	67.4	0
28	1260	67.5	0
28	1260	67.6	0
28	1260	67.7	0
28	1260	67.8	0
28	1260	67.9	0
28	1260	68	0
28	1260	68.1	0
28	1260	68.2	0
28	1260	68.3	0
28	1260	68.4	0
28	1260	68.5	0
28	1260	68.6	0
28	1260	68.7	0
28	1260	68.8	0
28	1260	68.9	0
28	1260	69	0
28	1260	69.1	0
28	1260	69.2	0
28	1260	69.3	0
28	1260	69.4	0
28	1260	69.5	0
28	1260	69.6	0
28	1260	69.7	0
28	1260	69.8	0
28	1260	69.9	0
28	1260	70	0
28	1260	70.1	0
28	1260	70.2	0
28	1260	70.3	0
28	1260	70.4	0
28	1260	70.5	0
28	1260	70.6	0
28	1260	70.7	0
28	1260	70.8	0
28	1260	70.9	0
28	1260	71	0
28	1260	71.1	0
28	1260	71.2	0
28	1260	71.3	0
28	1260	71.4	0
28	1260	71.5	0
28	1260	71.6	0
28	1260	71.7	0
28	1260	71.8	0
28	1260	71.9	0
28	1260	72	0
28	1260	72.1	0
28	1260	72.2	0
28	1260	72.3	0
28	1260	72.4	0
28	1260	72.5	0
28	1260	72.6	0
28	1260	72.7	0
28	1260	72.8	0
28	1260	72.9	0
28	1260	73	0
28	1260	73.1	0
28	1260	73.2	0
28	1260	73.3	0
28	1260	73.4	0
28	1260	73.5	0
28	1260	73.6	0
28	1260	73.7	0
28	1260	73.8	0
28	1260	73.9	0
28	1260	74	0
28	1260	74.1	0
28	1260	74.2	0
28	1260	74.3	0
28	1260	74.4	0
28	1260	74.5	0
28	1260	74.6	0
28	1260	74.7	0
28	1260	74.8	0
28	1260	74.9	0
28	1260	75	0
28	1260	75.1	0
28	1260	75.2	0
28	1260	75.3	0
28	1260	75.4	0
28	1260	75.5	0
28	1260	75.6	0
28	1260	75.7	0
28	1260	75.8	0
28	1260	75.9	0
28	1260	76	0
28	1260	76.1	0
28	1260	76.2	0
28	1260	76.3	0
28	1260	76.4	0
28	1260	76.5	0
28	1260	76.6	0
28	1260	76.7	0
28	1260	76.8	0
28	1260	76.9	0
28	1260	77	0
28	1260	77.1	0
28	1260	77.2	0
28	1260	77.3	0
28	1260	77.4	0
28	1260	77.5	0
28	1260	77.6	0
28	1260	77.7	0
28	1260	77.8	0
28	1260	77.9	0
28	1260	78	0
28	1260	78.1	0
28	1260	78.2	0
28	1260	78.3	0
28	1260	78.4	0
28	1260	78.5	0
28	1260	78.6	0
28	1260	78.7	0
28	1260	78.8	0
28	1260	78.9	0
28	1260	79	0
28	1260	79.1	0
28	1260	79.2	0
28	1260	79.3	0
28	1260	79.4	0
28	1260	79.5	0
28	1260	79.6	0
28	1260	79.7	0
28	1260	79.8	0
28	1260	79.9	0
28	1260	80	0
28	1260	80.1	0
28	1260	80.2	0
28	1260	80.3	0
28	1260	80.4	0
28	1260	80.5	0
28	1260	80.6	0
28	1260	80.7	0
28	1260	80.8	0
28	1260	80.9	0
28	1260	81	0
28	1260	81.1	0
28	1260	81.2	0
28	1260	81.3	0
28	1260	81.4	0
28	1260	81.5	0
28	1260	81.6	0
28	1260	81.7	0
28	1260	81.8	0
28	1260	81.9	0
28	1260	82	0
28	1260	82.1	0
28	1260	82.2	0
28	1260	82.3	0
28	1260	82.4	0
28	1260	82.5	0
28	1260	82.6	0
28	1260	82.7	0
28	1260	82.8	0
28	1260	82.9	0
28	1260	83	0
28	1260	83.1	0
28	1260	83.2	0
28	1260	83.3	0
28	1260	83.4	0
28	1260	83.5	0
28	1260	83.6	0
28	1260	83.7	0
28	1260	83.8	0
28	1260	83.9	0
28	1260	84	0
28	1260	84.1	0
28	1260	84.2	0
28	1260	84.3	0
28	1260	84.4	0
28	1260	84.5	0
28	1260	84.6	0
28	1260	84.7	0
28	1260	84.8	0
28	1260	84.9	0
28	1260	85	0
28	1260	85.1	0
28	1260	85.2	0
28	1260	85.3	0
28	1260	85.4	0
28	1260	85.5	0
28	1260	85.6	0
28	1260	85.7	0
28	1260	85.8	0
28	1260	85.9	0
28	1260	86	0
28	1260	86.1	0
28	1260	86.2	0
28	1260	86.3	0
28	1260	86.4	0
28	1260	86.5	0
28	1260	86.6	0
28	1260	86.7	0
28	1260	86.8	0
28	1260	86.9	0
28	1260	87	0
28	1260	87.1	0
28	1260	87.2	0
28	1260	87.3	0
28	1260	87.4	0
28	1260	87.5	0
28	1260	87.6	0
28	1260	87.7	0
28	1260	87.8	0
28	1260	87.9	0
28	1260	88	0
28	1260	88.1	0
28	1260	88.2	0
28	1260	88.3	0
28	1260	88.4	0
28	1260	88.5	0
28	1260	88.6	0
28	1260	88.7	0
28	1260	88.8	0
28	1260	88.9	0
28	1260	89	0
28	1260	89.1	0
28	1260	89.2	0
28	1260	89.3	0
28	1260	89.4	0
28	1260	89.5	0
28	1260	89.6	0
28	1260	89.7	0
28	1260	89.8	0
28	1260	89.9	0
28	1260	90	0
28	1260	90.1	0
28	1260	90.2	0
28	1260	90.3	0
28	1260	90.4	0
28	1260	90.5	0
28	1260	90.6	0
28	1260	90.7	0
28	1260	90.8	0
28	1260	90.9	0
28	1260	91	0
28	1260	91.1	0
28	1260	91.2	0
28	1260	91.3	0
28	1260	91.4	0
28	1260	91.5	0
28	1260	91.6	0
28	1260	91.7	0
28	1260	91.8	0
28	1260	91.9	0
28	1260	92	0
28	1260	92.1	0
28	1260	92.2	0
28	1260	92.3	0
28	1260	92.4	0
28	1260	92.5	0
28	1260	92.6	0
28	1260	92.7	0
28	1260	92.8	0
28	1260	92.9	0
28	1260	93	0
28	1260	93.1	0
28	1260	93.2	0
28	1260	93.3	0
28	1260	93.4	0
28	1260	93.5	0
28	1260	93.6	0
28	1260	93.7	0
28	1260	93.8	0
28	1260	93.9	0
28	1260	94	0
28	1260	94.1	0
28	1260	94.2	0
28	1260	94.3	0
28	1260	94.4	0
28	1260	94.5	0
28	1260	94.6	0
28	1260	94.7	0
28	1260	94.8	0
28	1260	94.9	0
28	1260	95	0
28	1260	95.1	0
28	1260	95.2	0
28	1260	95.3	0
28	1260	95.4	0
28	1260	95.5	0
28	1260	95.6	0
28	1260	95.7	0
28	1260	95.8	0
28	1260	95.9	0
28	1260	96	0
28	1260	96.1	0
28	1260	96.2	0
28	1260	96.3	0
28	1260	96.4	0
28	1260	96.5	0
28	1260	96.6	0
28	1260	96.7	0
28	1260	96.8	0
28	1260	96.9	0
28	1260	97	0
28	1260	97.1	0
28	1260	97.2	0
28	1260	97.3	0
28	1260	97.4	0
28	1260	97.5	0
28	1260	97.6	0
28	1260	97.7	0
28	1260	97.8	0
28	1260	97.9	0
28	1260	98	0
28	1260	98.1	0
28	1260	98.2	0
28	1260	98.3	0
28	1260	98.4	0
28	1260	98.5	0
28	1260	98.6	0
28	1260	98.7	0
28	1260	98.8	0
28	1260	98.9	0
28	1260	99	0
28	1260	99.1	0
28	1260	99.2	0
28	1260	99.3	0
28	1260	99.4	0
28	1260	99.5	0
28	1260	99.6	0
28	1260	99.7	0
28	1260	99.8	0
28	1260	99.9	0
28	1260	100	0
28	1260	100.1	0
28	1260	100.2	0
28	1260	100.3	0
28	1260	100.4	0
28	1260	100.5	0
28	1260	100.6	0
28	1260	100.7	0
28	1260	100.8	0
28	1260	100.9	0
28	1260	101	0
28	1260	101.1	0
28	1260	101.2	0
28	1260	101.3	0
28	1260	101.4	0
28	1260	101.5	0
28	1260	101.6	0
28	1260	101.7	0
28	1260	101.8	0
28	1260	101.9	0
28	1260	102	0
28	1260	102.1	0
28	1260	102.2	0
28	1260	102.3	0
28	1260	102.4	0
28	1260	102.5	0
28	1260	102.6	0
28	1260	102.7	0
28	1260	102.8	0
28	1260	102.9	0
28	1260	103	0
28	1260	103.1	0
28	1260	103.2	0
28	1260	103.3	0
28	1260	103.4	0
28	1260	103.5	0
28	1260	103.6	0
28	1260	103.7	0
28	1260	103.8	0
28	1260	103.9	0
28	1260	104	0
28	1260	104.1	0
28	1260	104.2	0
28	1260	104.3	0
28	1260	104.4	0
28	1260	104.5	0
28	1260	104.6	0
28	1260	104.7	0
28	1260	104.8	0
28	1260	104.9	0
28	1260	105	0
28	1260	105.1	0
28	1260	105.2	0
28	1260	105.3	0
28	1260	105.4	0
28	1260	105.5	0
28	1260	105.6	0
28	1260	105.7	0
28	1260	105.8	0
28	1260	105.9	0
28	1260	106	0
28	1260	106.1	0
28	1260	106.2	0
28	1260	106.3	0
28	1260	106.4	0
28	1260	106.5	0
28	1260	106.6	0
28	1260	106.7	0
28	1260	106.8	0
28	1260	106.9	0
28	1260	107	0
28	1260	107.1	0
28	1260	107.2	0
28	1260	107.3	0
28	1260	107.4	0
28	1260	107.5	0
28	1260	107.6	0
28	1260	107.7	0
28	1260	107.8	0
28	1260	107.9	0
28	1260	108	0
28	1260	108.1	0
28	1260	108.2	0
28	1260	108.3	0
28	1260	108.4	0
28	1260	108.5	0
28	1260	108.6	0
28	1260	108.7	0
28	1260	108.8	0
28	1260	108.9	0
28	1260	109	0
28	1260	109.1	0
28	1260	109.2	0
28	1260	109.3	0
28	1260	109.4	0
28	1260	109.5	0
28	1260	109.6	0
28	1260	109.7	0
28	1260	109.8	0
28	1260	109.9	0
28	1260	110	0
28	1260	110.1	0
28	1260	110.2	0
28	1260	110.3	0
28	1260	110.4	0
28	1260	110.5	0
28	1260	110.6	0
28	1260	110.7	0
28	1260	110.8	0
28	1260	110.9	0
28	1260	111	0
28	1260	111.1	0
28	1260	111.2	0
28	1260	111.3	0
28	1260	111.4	0
28	1260	111.5	0
28	1260	111.6	0
28	1260	111.7	0
28	1260	111.8	0
28	1260	111.9	0
28	1260	112	0
28	1260	112.1	0
27	222	20	100
27	230	20	100
27	283	20.000440498512	100
27	327	20.000887787988	100
16	213	20	100
16	222	20	100
vector 106 Scenario.node[1].app[0] throughput:vector ETV
attr source throughput(packetReceived)
attr title "throughput, vector"
attr unit bps
4	2	0.1	0
4	2	0.1	0
4	2	0.1	2
5	2	0.1	3
6	2	0.1	1
7	2	0.1	15
8	2	0.1	0
8	2	0.1	0
8	2	0.1	2
8	315	20.00073514325	3
8	321	20.00088714325	2
9	2	0.1	3
10	2	0.1	1
10	236	20.000000644738	3
10	254	20.000152644738	1
10	274	20.000288985094	3
10	284	20.000440985094	1
10	296	20.00051214325	3
10	306	20.00066414325	1
10	315	20.00073514325	0
10	321	20.00088714325	1
11	2	0.1	15
60	255	20.000152644738	158
60	285	20.000440985094	158
60	307	20.00066414325	158
61	255	20.000152644738	158
61	285	20.000440985094	158
61	307	20.00066414325	158
62	255	20.000152644738	158
62	285	20.000440985094	158
62	307	20.00066414325	158
63	255	20.000152644738	158
63	285	20.000440985094	158
63	307	20.00066414325	158
64	255	20.000152644738	130
64	285	20.000440985094	130
64	307	20.00066414325	130
65	258	20.000152644738	108
65	266	20.000152644738	108
65	288	20.000440985094	108
65	310	20.00066414325	108
66	258	20.000152644738	1
66	266	20.000152644738	2
66	288	20.000440985094	3
66	310	20.00066414325	4
67	259	20.000152644738	100
67	267	20.000152644738	100
67	289	20.000440985094	100
67	311	20.00066414325	100
68	259	0.1	0
68	259	0.2	0
68	259	0.3	0
68	259	0.4	0
68	259	0.5	0
68	259	0.6	0
68	259	0.7	0
68	259	0.8	0
68	259	0.9	0
68	259	1	0
68	259	1.1	0
68	259	1.2	0
68	259	1.3	0
68	259	1.4	0
68	259	1.5	0
68	259	1.6	0
68	259	1.7	0
68	259	1.8	0
68	259	1.9	0
68	259	2	0
68	259	2.1	0
68	259	2.2	0
68	259	2.3	0
68	259	2.4	0
68	259	2.5	0
68	259	2.6	0
68	259	2.7	0
68	259	2.8	0
68	259	2.9	0
68	259	3	0
68	259	3.1	0
68	259	3.2	0
68	259	3.3	0
68	259	3.4	0
68	259	3.5	0
68	259	3.6	0
68	259	3.7	0
68	259	3.8	0
68	259	3.9	0
68	259	4	0
68	259	4.1	0
68	259	4.2	0
68	259	4.3	0
68	259	4.4	0
68	259	4.5	0
68	259	4.6	0
68	259	4.7	0
68	259	4.8	0
68	259	4.9	0
68	259	5	0
68	259	5.1	0
68	259	5.2	0
68	259	5.3	0
68	259	5.4	0
68	259	5.5	0
68	259	5.6	0
68	259	5.7	0
68	259	5.8	0
68	259	5.9	0
68	259	6	0
68	259	6.1	0
68	259	6.2	0
68	259	6.3	0
68	259	6.4	0
68	259	6.5	0
68	259	6.6	0
68	259	6.7	0
68	259	6.8	0
68	259	6.9	0
68	259	7	0
68	259	7.1	0
68	259	7.2	0
68	259	7.3	0
68	259	7.4	0
68	259	7.5	0
68	259	7.6	0
68	259	7.7	0
68	259	7.8	0
68	259	7.9	0
68	259	8	0
68	259	8.1	0
68	259	8.2	0
68	259	8.3	0
68	259	8.4	0
68	259	8.5	0
68	259	8.6	0
68	259	8.7	0
68	259	8.8	0
68	259	8.9	0
68	259	9	0
68	259	9.1	0
68	259	9.2	0
68	259	9.3	0
68	259	9.4	0
68	259	9.5	0
68	259	9.6	0
68	259	9.7	0
68	259	9.8	0
68	259	9.9	0
68	259	10	0
68	259	10.1	0
68	259	10.2	0
68	259	10.3	0
68	259	10.4	0
68	259	10.5	0
68	259	10.6	0
68	259	10.7	0
68	259	10.8	0
68	259	10.9	0
68	259	11	0
68	259	11.1	0
68	259	11.2	0
68	259	11.3	0
68	259	11.4	0
68	259	11.5	0
68	259	11.6	0
68	259	11.7	0
68	259	11.8	0
68	259	11.9	0
68	259	12	0
68	259	12.1	0
68	259	12.2	0
68	259	12.3	0
68	259	12.4	0
68	259	12.5	0
68	259	12.6	0
68	259	12.7	0
68	259	12.8	0
68	259	12.9	0
68	259	13	0
68	259	13.1	0
68	259	13.2	0
68	259	13.3	0
68	259	13.4	0
68	259	13.5	0
68	259	13.6	0
68	259	13.7	0
68	259	13.8	0
68	259	13.9	0
68	259	14	0
68	259	14.1	0
68	259	14.2	0
68	259	14.3	0
68	259	14.4	0
68	259	14.5	0
68	259	14.6	0
68	259	14.7	0
68	259	14.8	0
68	259	14.9	0
68	259	15	0
68	259	15.1	0
68	259	15.2	0
68	259	15.3	0
68	259	15.4	0
68	259	15.5	0
68	259	15.6	0
68	259	15.7	0
68	259	15.8	0
68	259	15.9	0
68	259	16	0
68	259	16.1	0
68	259	16.2	0
68	259	16.3	0
68	259	16.4	0
68	259	16.5	0
68	259	16.6	0
68	259	16.7	0
68	259	16.8	0
68	259	16.9	0
68	259	17	0
68	259	17.1	0
68	259	17.2	0
68	259	17.3	0
68	259	17.4	0
68	259	17.5	0
68	259	17.6	0
68	259	17.7	0
68	259	17.8	0
68	259	17.9	0
68	259	18	0
68	259	18.1	0
68	259	18.2	0
68	259	18.3	0
68	259	18.4	0
68	259	18.5	0
68	259	18.6	0
68	259	18.7	0
68	259	18.8	0
68	259	18.9	0
68	259	19	0
68	259	19.1	0
68	259	19.2	0
68	259	19.3	0
68	259	19.4	0
68	259	19.5	0
68	259	19.6	0
68	259	19.7	0
68	259	19.8	0
68	259	19.9	0
68	259	20	0
68	1340	20.1	32000
68	1340	20.2	0
68	1340	20.3	0
68	1340	20.4	0
68	1340	20.5	0
68	1340	20.6	0
68	1340	20.7	0
68	1340	20.8	0
68	1340	20.9	0
68	1340	21	0
68	1340	21.1	0
68	1340	21.2	0
68	1340	21.3	0
68	1340	21.4	0
68	1340	21.5	0
68	1340	21.6	0
68	1340	21.7	0
68	1340	21.8	0
68	1340	21.9	0
68	1340	22	0
68	1340	22.1	0
68	1340	22.2	0
68	1340	22.3	0
68	1340	22.4	0
68	1340	22.5	0
68	1340	22.6	0
68	1340	22.7	0
68	1340	22.8	0
68	1340	22.9	0
68	1340	23	0
68	1340	23.1	0
68	1340	23.2	0
68	1340	23.3	0
68	1340	23.4	0
68	1340	23.5	0
68	1340	23.6	0
68	1340	23.7	0
68	1340	23.8	0
68	1340	23.9	0
68	1340	24	0
68	1340	24.1	0
68	1340	24.2	0
68	1340	24.3	0
68	1340	24.4	0
68	1340	24.5	0
68	1340	24.6	0
68	1340	24.7	0
68	1340	24.8	0
68	1340	24.9	0
68	1340	25	0
68	1340	25.1	0
68	1340	25.2	0
68	1340	25.3	0
68	1340	25.4	0
68	1340	25.5	0
68	1340	25.6	0
68	1340	25.7	0
68	1340	25.8	0
68	1340	25.9	0
68	1340	26	0
68	1340	26.1	0
68	1340	26.2	0
68	1340	26.3	0
68	1340	26.4	0
68	1340	26.5	0
68	1340	26.6	0
68	1340	26.7	0
68	1340	26.8	0
68	1340	26.9	0
68	1340	27	0
68	1340	27.1	0
68	1340	27.2	0
68	1340	27.3	0
68	1340	27.4	0
68	1340	27.5	0
68	1340	27.6	0
68	1340	27.7	0
68	1340	27.8	0
68	1340	27.9	0
68	1340	28	0
68	1340	28.1	0
68	1340	28.2	0
68	1340	28.3	0
68	1340	28.4	0
68	1340	28.5	0
68	1340	28.6	0
68	1340	28.7	0
68	1340	28.8	0
68	1340	28.9	0
68	1340	29	0
68	1340	29.1	0
68	1340	29.2	0
68	1340	29.3	0
68	1340	29.4	0
68	1340	29.5	0
68	1340	29.6	0
68	1340	29.7	0
68	1340	29.8	0
68	1340	29.9	0
68	1340	30	0
68	1340	30.1	0
68	1340	30.2	0
68	1340	30.3	0
68	1340	30.4	0
68	1340	30.5	0
68	1340	30.6	0
68	1340	30.7	0
68	1340	30.8	0
68	1340	30.9	0
68	1340	31	0
68	1340	31.1	0
68	1340	31.2	0
68	1340	31.3	0
68	1340	31.4	0
68	1340	31.5	0
68	1340	31.6	0
68	1340	31.7	0
68	1340	31.8	0
68	1340	31.9	0
68	1340	32	0
68	1340	32.1	0
68	1340	32.2	0
68	1340	32.3	0
68	1340	32.4	0
68	1340	32.5	0
68	1340	32.6	0
68	1340	32.7	0
68	1340	32.8	0
68	1340	32.9	0
68	1340	33	0
68	1340	33.1	0
68	1340	33.2	0
68	1340	33.3	0
68	1340	33.4	0
68	1340	33.5	0
68	1340	33.6	0
68	1340	33.7	0
68	1340	33.8	0
68	1340	33.9	0
68	1340	34	0
68	1340	34.1	0
68	1340	34.2	0
68	1340	34.3	0
68	1340	34.4	0
68	1340	34.5	0
68	1340	34.6	0
68	1340	34.7	0
68	1340	34.8	0
68	1340	34.9	0
68	1340	35	0
68	1340	35.1	0
68	1340	35.2	0
68	1340	35.3	0
68	1340	35.4	0
68	1340	35.5	0
68	1340	35.6	0
68	1340	35.7	0
68	1340	35.8	0
68	1340	35.9	0
68	1340	36	0
68	1340	36.1	0
68	1340	36.2	0
68	1340	36.3	0
68	1340	36.4	0
68	1340	36.5	0
68	1340	36.6	0
68	1340	36.7	0
68	1340	36.8	0
68	1340	36.9	0
68	1340	37	0
68	1340	37.1	0
68	1340	37.2	0
68	1340	37.3	0
68	1340	37.4	0
68	1340	37.5	0
68	1340	37.6	0
68	1340	37.7	0
68	1340	37.8	0
68	1340	37.9	0
68	1340	38	0
68	1340	38.1	0
68	1340	38.2	0
68	1340	38.3	0
68	1340	38.4	0
68	1340	38.5	0
68	1340	38.6	0
68	1340	38.7	0
68	1340	38.8	0
68	1340	38.9	0
68	1340	39	0
68	1340	39.1	0
68	1340	39.2	0
68	1340	39.3	0
68	1340	39.4	0
68	1340	39.5	0
68	1340	39.6	0
68	1340	39.7	0
68	1340	39.8	0
68	1340	39.9	0
68	1340	40	0
68	1340	40.1	0
68	1340	40.2	0
68	1340	40.3	0
68	1340	40.4	0
68	1340	40.5	0
68	1340	40.6	0
68	1340	40.7	0
68	1340	40.8	0
68	1340	40.9	0
68	1340	41	0
68	1340	41.1	0
68	1340	41.2	0
68	1340	41.3	0
68	1340	41.4	0
68	1340	41.5	0
68	1340	41.6	0
68	1340	41.7	0
68	1340	41.8	0
68	1340	41.9	0
68	1340	42	0
68	1340	42.1	0
68	1340	42.2	0
68	1340	42.3	0
68	1340	42.4	0
68	1340	42.5	0
68	1340	42.6	0
68	1340	42.7	0
68	1340	42.8	0
68	1340	42.9	0
68	1340	43	0
68	1340	43.1	0
68	1340	43.2	0
68	1340	43.3	0
68	1340	43.4	0
68	1340	43.5	0
68	1340	43.6	0
68	1340	43.7	0
68	1340	43.8	0
68	1340	43.9	0
68	1340	44	0
68	1340	44.1	0
68	1340	44.2	0
68	1340	44.3	0
68	1340	44.4	0
68	1340	44.5	0
68	1340	44.6	0
68	1340	44.7	0
68	1340	44.8	0
68	1340	44.9	0
68	1340	45	0
68	1340	45.1	0
68	1340	45.2	0
68	1340	45.3	0
68	1340	45.4	0
68	1340	45.5	0
68	1340	45.6	0
68	1340	45.7	0
68	1340	45.8	0
68	1340	45.9	0
68	1340	46	0
68	1340	46.1	0
68	1340	46.2	0
68	1340	46.3	0
68	1340	46.4	0
68	1340	46.5	0
68	1340	46.6	0
68	1340	46.7	0
68	1340	46.8	0
68	1340	46.9	0
68	1340	47	0
68	1340	47.1	0
68	1340	47.2	0
68	1340	47.3	0
68	1340	47.4	0
68	1340	47.5	0
68	1340	47.6	0
68	1340	47.7	0
68	1340	47.8	0
68	1340	47.9	0
68	1340	48	0
68	1340	48.1	0
68	1340	48.2	0
68	1340	48.3	0
68	1340	48.4	0
68	1340	48.5	0
68	1340	48.6	0
68	1340	48.7	0
68	1340	48.8	0
68	1340	48.9	0
68	1340	49	0
68	1340	49.1	0
68	1340	49.2	0
68	1340	49.3	0
68	1340	49.4	0
68	1340	49.5	0
68	1340	49.6	0
68	1340	49.7	0
68	1340	49.8	0
68	1340	49.9	0
68	1340	50	0
68	1340	50.1	0
68	1340	50.2	0
68	1340	50.3	0
68	1340	50.4	0
68	1340	50.5	0
68	1340	50.6	0
68	1340	50.7	0
68	1340	50.8	0
68	1340	50.9	0
68	1340	51	0
68	1340	51.1	0
68	1340	51.2	0
68	1340	51.3	0
68	1340	51.4	0
68	1340	51.5	0
68	1340	51.6	0
68	1340	51.7	0
68	1340	51.8	0
68	1340	51.9	0
68	1340	52	0
68	1340	52.1	0
68	1340	52.2	0
68	1340	52.3	0
68	1340	52.4	0
68	1340	52.5	0
68	1340	52.6	0
68	1340	52.7	0
68	1340	52.8	0
68	1340	52.9	0
68	1340	53	0
68	1340	53.1	0
68	1340	53.2	0
68	1340	53.3	0
68	1340	53.4	0
68	1340	53.5	0
68	1340	53.6	0
68	1340	53.7	0
68	1340	53.8	0
68	1340	53.9	0
68	1340	54	0
68	1340	54.1	0
68	1340	54.2	0
68	1340	54.3	0
68	1340	54.4	0
68	1340	54.5	0
68	1340	54.6	0
68	1340	54.7	0
68	1340	54.8	0
68	1340	54.9	0
68	1340	55	0
68	1340	55.1	0
68	1340	55.2	0
68	1340	55.3	0
68	1340	55.4	0
68	1340	55.5	0
68	1340	55.6	0
68	1340	55.7	0
68	1340	55.8	0
68	1340	55.9	0
68	1340	56	0
68	1340	56.1	0
68	1340	56.2	0
68	1340	56.3	0
68	1340	56.4	0
68	1340	56.5	0
68	1340	56.6	0
68	1340	56.7	0
68	1340	56.8	0
68	1340	56.9	0
68	1340	57	0
68	1340	57.1	0
68	1340	57.2	0
68	1340	57.3	0
68	1340	57.4	0
68	1340	57.5	0
68	1340	57.6	0
68	1340	57.7	0
68	1340	57.8	0
68	1340	57.9	0
68	1340	58	0
68	1340	58.1	0
68	1340	58.2	0
68	1340	58.3	0
68	1340	58.4	0
68	1340	58.5	0
68	1340	58.6	0
68	1340	58.7	0
68	1340	58.8	0
68	1340	58.9	0
68	1340	59	0
68	1340	59.1	0
68	1340	59.2	0
68	1340	59.3	0
68	1340	59.4	0
68	1340	59.5	0
68	1340	59.6	0
68	1340	59.7	0
68	1340	59.8	0
68	1340	59.9	0
68	1340	60	0
68	1340	60.1	0
68	1340	60.2	0
68	1340	60.3	0
68	1340	60.4	0
68	1340	60.5	0
68	1340	60.6	0
68	1340	60.7	0
68	1340	60.8	0
68	1340	60.9	0
68	1340	61	0
68	1340	61.1	0
68	1340	61.2	0
68	1340	61.3	0
68	1340	61.4	0
68	1340	61.5	0
68	1340	61.6	0
68	1340	61.7	0
68	1340	61.8	0
68	1340	61.9	0
68	1340	62	0
68	1340	62.1	0
68	1340	62.2	0
68	1340	62.3	0
68	1340	62.4	0
68	1340	62.5	0
68	1340	62.6	0
68	1340	62.7	0
68	1340	62.8	0
68	1340	62.9	0
68	1340	63	0
68	1340	63.1	0
68	1340	63.2	0
68	1340	63.3	0
68	1340	63.4	0
68	1340	63.5	0
68	1340	63.6	0
68	1340	63.7	0
68	1340	63.8	0
68	1340	63.9	0
68	1340	64	0
68	1340	64.1	0
68	1340	64.2	0
68	1340	64.3	0
68	1340	64.4	0
68	1340	64.5	0
68	1340	64.6	0
68	1340	64.7	0
68	1340	64.8	0
68	1340	64.9	0
68	1340	65	0
68	1340	65.1	0
68	1340	65.2	0
68	1340	65.3	0
68	1340	65.4	0
68	1340	65.5	0
68	1340	65.6	0
68	1340	65.7	0
68	1340	65.8	0
68	1340	65.9	0
68	1340	66	0
68	1340	66.1	0
68	1340	66.2	0
68	1340	66.3	0
68	1340	66.4	0
68	1340	66.5	0
68	1340	66.6	0
68	1340	66.7	0
68	1340	66.8	0
68	1340	66.9	0
68	1340	67	0
68	1340	67.1	0
68	1340	67.2	0
68	1340	67.3	0
68	1340	67.4	0
68	1340	67.5	0
68	1340	67.6	0
68	1340	67.7	0
68	1340	67.8	0
68	1340	67.9	0
68	1340	68	0
68	1340	68.1	0
68	1340	68.2	0
68	1340	68.3	0
68	1340	68.4	0
68	1340	68.5	0
68	1340	68.6	0
68	1340	68.7	0
68	1340	68.8	0
68	1340	68.9	0
68	1340	69	0
68	1340	69.1	0
68	1340	69.2	0
68	1340	69.3	0
68	1340	69.4	0
68	1340	69.5	0
68	1340	69.6	0
68	1340	69.7	0
68	1340	69.8	0
68	1340	69.9	0
68	1340	70	0
68	1340	70.1	0
68	1340	70.2	0
68	1340	70.3	0
68	1340	70.4	0
68	1340	70.5	0
68	1340	70.6	0
68	1340	70.7	0
68	1340	70.8	0
68	1340	70.9	0
68	1340	71	0
68	1340	71.1	0
68	1340	71.2	0
68	1340	71.3	0
68	1340	71.4	0
68	1340	71.5	0
68	1340	71.6	0
68	1340	71.7	0
68	1340	71.8	0
68	1340	71.9	0
68	1340	72	0
68	1340	72.1	0
68	1340	72.2	0
68	1340	72.3	0
68	1340	72.4	0
68	1340	72.5	0
68	1340	72.6	0
68	1340	72.7	0
68	1340	72.8	0
68	1340	72.9	0
68	1340	73	0
68	1340	73.1	0
68	1340	73.2	0
68	1340	73.3	0
68	1340	73.4	0
68	1340	73.5	0
68	1340	73.6	0
68	1340	73.7	0
68	1340	73.8	0
68	1340	73.9	0
68	1340	74	0
68	1340	74.1	0
68	1340	74.2	0
68	1340	74.3	0
68	1340	74.4	0
68	1340	74.5	0
68	1340	74.6	0
68	1340	74.7	0
68	1340	74.8	0
68	1340	74.9	0
68	1340	75	0
68	1340	75.1	0
68	1340	75.2	0
68	1340	75.3	0
68	1340	75.4	0
68	1340	75.5	0
68	1340	75.6	0
68	1340	75.7	0
68	1340	75.8	0
68	1340	75.9	0
68	1340	76	0
68	1340	76.1	0
68	1340	76.2	0
68	1340	76.3	0
68	1340	76.4	0
68	1340	76.5	0
68	1340	76.6	0
68	1340	76.7	0
68	1340	76.8	0
68	1340	76.9	0
68	1340	77	0
68	1340	77.1	0
68	1340	77.2	0
68	1340	77.3	0
68	1340	77.4	0
68	1340	77.5	0
68	1340	77.6	0
68	1340	77.7	0
68	1340	77.8	0
68	1340	77.9	0
68	1340	78	0
68	1340	78.1	0
68	1340	78.2	0
68	1340	78.3	0
68	1340	78.4	0
68	1340	78.5	0
68	1340	78.6	0
68	1340	78.7	0
68	1340	78.8	0
68	1340	78.9	0
68	1340	79	0
68	1340	79.1	0
68	1340	79.2	0
68	1340	79.3	0
68	1340	79.4	0
68	1340	79.5	0
68	1340	79.6	0
68	1340	79.7	0
68	1340	79.8	0
68	1340	79.9	0
68	1340	80	0
68	1340	80.1	0
68	1340	80.2	0
68	1340	80.3	0
68	1340	80.4	0
68	1340	80.5	0
68	1340	80.6	0
68	1340	80.7	0
68	1340	80.8	0
68	1340	80.9	0
68	1340	81	0
68	1340	81.1	0
68	1340	81.2	0
68	1340	81.3	0
68	1340	81.4	0
68	1340	81.5	0
68	1340	81.6	0
68	1340	81.7	0
68	1340	81.8	0
68	1340	81.9	0
68	1340	82	0
68	1340	82.1	0
68	1340	82.2	0
68	1340	82.3	0
68	1340	82.4	0
68	1340	82.5	0
68	1340	82.6	0
68	1340	82.7	0
68	1340	82.8	0
68	1340	82.9	0
68	1340	83	0
68	1340	83.1	0
68	1340	83.2	0
68	1340	83.3	0
68	1340	83.4	0
68	1340	83.5	0
68	1340	83.6	0
68	1340	83.7	0
68	1340	83.8	0
68	1340	83.9	0
68	1340	84	0
68	1340	84.1	0
68	1340	84.2	0
68	1340	84.3	0
68	1340	84.4	0
68	1340	84.5	0
68	1340	84.6	0
68	1340	84.7	0
68	1340	84.8	0
68	1340	84.9	0
68	1340	85	0
68	1340	85.1	0
68	1340	85.2	0
68	1340	85.3	0
68	1340	85.4	0
68	1340	85.5	0
68	1340	85.6	0
68	1340	85.7	0
68	1340	85.8	0
68	1340	85.9	0
68	1340	86	0
68	1340	86.1	0
68	1340	86.2	0
68	1340	86.3	0
68	1340	86.4	0
68	1340	86.5	0
68	1340	86.6	0
68	1340	86.7	0
68	1340	86.8	0
68	1340	86.9	0
68	1340	87	0
68	1340	87.1	0
68	1340	87.2	0
68	1340	87.3	0
68	1340	87.4	0
68	1340	87.5	0
68	1340	87.6	0
68	1340	87.7	0
68	1340	87.8	0
68	1340	87.9	0
68	1340	88	0
68	1340	88.1	0
68	1340	88.2	0
68	1340	88.3	0
68	1340	88.4	0
68	1340	88.5	0
68	1340	88.6	0
68	1340	88.7	0
68	1340	88.8	0
68	1340	88.9	0
68	1340	89	0
68	1340	89.1	0
68	1340	89.2	0
68	1340	89.3	0
68	1340	89.4	0
68	1340	89.5	0
68	1340	89.6	0
68	1340	89.7	0
68	1340	89.8	0
68	1340	89.9	0
68	1340	90	0
68	1340	90.1	0
68	1340	90.2	0
68	1340	90.3	0
68	1340	90.4	0
68	1340	90.5	0
68	1340	90.6	0
68	1340	90.7	0
68	1340	90.8	0
68	1340	90.9	0
68	1340	91	0
68	1340	91.1	0
68	1340	91.2	0
68	1340	91.3	0
68	1340	91.4	0
68	1340	91.5	0
68	1340	91.6	0
68	1340	91.7	0
68	1340	91.8	0
68	1340	91.9	0
68	1340	92	0
68	1340	92.1	0
68	1340	92.2	0
68	1340	92.3	0
68	1340	92.4	0
68	1340	92.5	0
68	1340	92.6	0
68	1340	92.7	0
68	1340	92.8	0
68	1340	92.9	0
68	1340	93	0
68	1340	93.1	0
68	1340	93.2	0
68	1340	93.3	0
68	1340	93.4	0
68	1340	93.5	0
68	1340	93.6	0
68	1340	93.7	0
68	1340	93.8	0
68	1340	93.9	0
68	1340	94	0
68	1340	94.1	0
68	1340	94.2	0
68	1340	94.3	0
68	1340	94.4	0
68	1340	94.5	0
68	1340	94.6	0
68	1340	94.7	0
68	1340	94.8	0
68	1340	94.9	0
68	1340	95	0
68	1340	95.1	0
68	1340	95.2	0
68	1340	95.3	0
68	1340	95.4	0
68	1340	95.5	0
68	1340	95.6	0
68	1340	95.7	0
68	1340	95.8	0
68	1340	95.9	0
68	1340	96	0
68	1340	96.1	0
68	1340	96.2	0
68	1340	96.3	0
68	1340	96.4	0
68	1340	96.5	0
68	1340	96.6	0
68	1340	96.7	0
68	1340	96.8	0
68	1340	96.9	0
68	1340	97	0
68	1340	97.1	0
68	1340	97.2	0
68	1340	97.3	0
68	1340	97.4	0
68	1340	97.5	0
68	1340	97.6	0
68	1340	97.7	0
68	1340	97.8	0
68	1340	97.9	0
68	1340	98	0
68	1340	98.1	0
68	1340	98.2	0
68	1340	98.3	0
68	1340	98.4	0
68	1340	98.5	0
68	1340	98.6	0
68	1340	98.7	0
68	1340	98.8	0
68	1340	98.9	0
68	1340	99	0
68	1340	99.1	0
68	1340	99.2	0
68	1340	99.3	0
68	1340	99.4	0
68	1340	99.5	0
68	1340	99.6	0
68	1340	99.7	0
68	1340	99.8	0
68	1340	99.9	0
68	1340	100	0
68	1340	100.1	0
68	1340	100.2	0
68	1340	100.3	0
68	1340	100.4	0
68	1340	100.5	0
68	1340	100.6	0
68	1340	100.7	0
68	1340	100.8	0
68	1340	100.9	0
68	1340	101	0
68	1340	101.1	0
68	1340	101.2	0
68	1340	101.3	0
68	1340	101.4	0
68	1340	101.5	0
68	1340	101.6	0
68	1340	101.7	0
68	1340	101.8	0
68	1340	101.9	0
68	1340	102	0
68	1340	102.1	0
68	1340	102.2	0
68	1340	102.3	0
68	1340	102.4	0
68	1340	102.5	0
68	1340	102.6	0
68	1340	102.7	0
68	1340	102.8	0
68	1340	102.9	0
68	1340	103	0
68	1340	103.1	0
68	1340	103.2	0
68	1340	103.3	0
68	1340	103.4	0
68	1340	103.5	0
68	1340	103.6	0
68	1340	103.7	0
68	1340	103.8	0
68	1340	103.9	0
68	1340	104	0
68	1340	104.1	0
68	1340	104.2	0
68	1340	104.3	0
68	1340	104.4	0
68	1340	104.5	0
68	1340	104.6	0
68	1340	104.7	0
68	1340	104.8	0
68	1340	104.9	0
68	1340	105	0
68	1340	105.1	0
68	1340	105.2	0
68	1340	105.3	0
68	1340	105.4	0
68	1340	105.5	0
68	1340	105.6	0
68	1340	105.7	0
68	1340	105.8	0
68	1340	105.9	0
68	1340	106	0
68	1340	106.1	0
68	1340	106.2	0
68	1340	106.3	0
68	1340	106.4	0
68	1340	106.5	0
68	1340	106.6	0
68	1340	106.7	0
68	1340	106.8	0
68	1340	106.9	0
68	1340	107	0
68	1340	107.1	0
68	1340	107.2	0
68	1340	107.3	0
68	1340	107.4	0
68	1340	107.5	0
68	1340	107.6	0
68	1340	107.7	0
68	1340	107.8	0
68	1340	107.9	0
68	1340	108	0
68	1340	108.1	0
68	1340	108.2	0
68	1340	108.3	0
68	1340	108.4	0
68	1340	108.5	0
68	1340	108.6	0
68	1340	108.7	0
68	1340	108.8	0
68	1340	108.9	0
68	1340	109	0
68	1340	109.1	0
68	1340	109.2	0
68	1340	109.3	0
68	1340	109.4	0
68	1340	109.5	0
68	1340	109.6	0
68	1340	109.7	0
68	1340	109.8	0
68	1340	109.9	0
68	1340	110	0
68	1340	110.1	0
68	1340	110.2	0
68	1340	110.3	0
68	1340	110.4	0
68	1340	110.5	0
68	1340	110.6	0
68	1340	110.7	0
68	1340	110.8	0
68	1340	110.9	0
68	1340	111	0
68	1340	111.1	0
68	1340	111.2	0
68	1340	111.3	0
68	1340	111.4	0
68	1340	111.5	0
68	1340	111.6	0
68	1340	111.7	0
68	1340	111.8	0
68	1340	111.9	0
68	1340	112	0
68	1340	112.1	0
68	1340	112.2	0
68	1340	112.3	0
68	1340	112.4	0
68	1340	112.5	0
68	1340	112.6	0
68	1340	112.7	0
68	1340	112.8	0
68	1340	112.9	0
68	1340	113	0
68	1340	113.1	0
68	1340	113.2	0
68	1340	113.3	0
68	1340	113.4	0
68	1340	113.5	0
68	1340	113.6	0
68	1340	113.7	0
68	1340	113.8	0
68	1340	113.9	0
68	1340	114	0
68	1340	114.1	0
68	1340	114.2	0
68	1340	114.3	0
68	1340	114.4	0
68	1340	114.5	0
68	1340	114.6	0
68	1340	114.7	0
68	1340	114.8	0
68	1340	114.9	0
68	1340	115	0
68	1340	115.1	0
68	1340	115.2	0
68	1340	115.3	0
68	1340	115.4	0
68	1340	115.5	0
68	1340	115.6	0
68	1340	115.7	0
68	1340	115.8	0
68	1340	115.9	0
68	1340	116	0
68	1340	116.1	0
68	1340	116.2	0
68	1340	116.3	0
68	1340	116.4	0
68	1340	116.5	0
68	1340	116.6	0
68	1340	116.7	0
68	1340	116.8	0
68	1340	116.9	0
68	1340	117	0
68	1340	117.1	0
68	1340	117.2	0
68	1340	117.3	0
68	1340	117.4	0
68	1340	117.5	0
68	1340	117.6	0
68	1340	117.7	0
68	1340	117.8	0
68	1340	117.9	0
68	1340	118	0
68	1340	118.1	0
68	1340	118.2	0
68	1340	118.3	0
68	1340	118.4	0
68	1340	118.5	0
68	1340	118.6	0
68	1340	118.7	0
68	1340	118.8	0
68	1340	118.9	0
68	1340	119	0
68	1340	119.1	0
68	1340	119.2	0
68	1340	119.3	0
68	1340	119.4	0
68	1340	119.5	0
68	1340	119.6	0
68	1340	119.7	0
68	1340	119.8	0
68	1340	119.9	0
68	1340	120	0
69	259	20.000152644738	0.000152644738
69	267	20.000152644738	0.000152644738
69	289	20.000440985094	0.000440985094
69	311	20.00066414325	0.00066414325
70	259	20.000152644738	100
71	260	20.000152644738	108
72	262	20.000152644738	128
73	262	20.000152644738	128
74	265	20.000152644738	130
75	265	20.000152644738	158
76	265	20.000152644738	1
76	314	20.00073514325	0
77	265	20.000152644738	8
78	265	20.000152644738	1
78	274	20.000288985094	0
78	284	20.000440985094	1
78	296	20.00051214325	0
78	306	20.00066414325	1
78	313	20.00073514325	0
95	314	20.00073514325	158
96	314	20.00073514325	0.000582498512
97	314	20.00073514325	1
97	320	20.00088714325	0
98	314	20.00073514325	12000000
99	314	20.00073514325	158
100	314	20.00073514325	1
100	320	20.00088714325	0
101	315	20.00073514325	1
101	316	20.00073514325	2
101	320	20.00088714325	1
101	321	20.00088714325	0
102	320	20.00088714325	158
103	320	20.00088714325	158
104	320	20.00088714325	158
105	320	20.00088714325	0.000152
106	1340	0.1	0
106	1340	0.2	0
106	1340	0.3	0
106	1340	0.4	0
106	1340	0.5	0
106	1340	0.6	0
106	1340	0.7	0
106	1340	0.8	0
106	1340	0.9	0
106	1340	1	0
106	1340	1.1	0
106	1340	1.2	0
106	1340	1.3	0
106	1340	1.4	0
106	1340	1.5	0
106	1340	1.6	0
106	1340	1.7	0
106	1340	1.8	0
106	1340	1.9	0
106	1340	2	0
106	1340	2.1	0
106	1340	2.2	0
106	1340	2.3	0
106	1340	2.4	0
106	1340	2.5	0
106	1340	2.6	0
106	1340	2.7	0
106	1340	2.8	0
106	1340	2.9	0
106	1340	3	0
106	1340	3.1	0
106	1340	3.2	0
106	1340	3.3	0
106	1340	3.4	0
106	1340	3.5	0
106	1340	3.6	0
106	1340	3.7	0
106	1340	3.8	0
106	1340	3.9	0
106	1340	4	0
106	1340	4.1	0
106	1340	4.2	0
106	1340	4.3	0
106	1340	4.4	0
106	1340	4.5	0
106	1340	4.6	0
106	1340	4.7	0
106	1340	4.8	0
106	1340	4.9	0
106	1340	5	0
106	1340	5.1	0
106	1340	5.2	0
106	1340	5.3	0
106	1340	5.4	0
106	1340	5.5	0
106	1340	5.6	0
106	1340	5.7	0
106	1340	5.8	0
106	1340	5.9	0
106	1340	6	0
106	1340	6.1	0
106	1340	6.2	0
106	1340	6.3	0
106	1340	6.4	0
106	1340	6.5	0
106	1340	6.6	0
106	1340	6.7	0
106	1340	6.8	0
106	1340	6.9	0
106	1340	7	0
106	1340	7.1	0
106	1340	7.2	0
106	1340	7.3	0
106	1340	7.4	0
106	1340	7.5	0
106	1340	7.6	0
106	1340	7.7	0
106	1340	7.8	0
106	1340	7.9	0
106	1340	8	0
106	1340	8.1	0
106	1340	8.2	0
106	1340	8.3	0
106	1340	8.4	0
106	1340	8.5	0
106	1340	8.6	0
106	1340	8.7	0
106	1340	8.8	0
106	1340	8.9	0
106	1340	9	0
106	1340	9.1	0
106	1340	9.2	0
106	1340	9.3	0
106	1340	9.4	0
106	1340	9.5	0
106	1340	9.6	0
106	1340	9.7	0
106	1340	9.8	0
106	1340	9.9	0
106	1340	10	0
106	1340	10.1	0
106	1340	10.2	0
106	1340	10.3	0
106	1340	10.4	0
106	1340	10.5	0
106	1340	10.6	0
106	1340	10.7	0
106	1340	10.8	0
106	1340	10.9	0
106	1340	11	0
106	1340	11.1	0
106	1340	11.2	0
106	1340	11.3	0
106	1340	11.4	0
106	1340	11.5	0
106	1340	11.6	0
106	1340	11.7	0
106	1340	11.8	0
106	1340	11.9	0
106	1340	12	0
106	1340	12.1	0
106	1340	12.2	0
106	1340	12.3	0
106	1340	12.4	0
106	1340	12.5	0
106	1340	12.6	0
106	1340	12.7	0
106	1340	12.8	0
106	1340	12.9	0
106	1340	13	0
106	1340	13.1	0
106	1340	13.2	0
106	1340	13.3	0
106	1340	13.4	0
106	1340	13.5	0
106	1340	13.6	0
106	1340	13.7	0
106	1340	13.8	0
106	1340	13.9	0
106	1340	14	0
106	1340	14.1	0
106	1340	14.2	0
106	1340	14.3	0
106	1340	14.4	0
106	1340	14.5	0
106	1340	14.6	0
106	1340	14.7	0
106	1340	14.8	0
106	1340	14.9	0
106	1340	15	0
106	1340	15.1	0
106	1340	15.2	0
106	1340	15.3	0
106	1340	15.4	0
106	1340	15.5	0
106	1340	15.6	0
106	1340	15.7	0
106	1340	15.8	0
106	1340	15.9	0
106	1340	16	0
106	1340	16.1	0
106	1340	16.2	0
106	1340	16.3	0
106	1340	16.4	0
106	1340	16.5	0
106	1340	16.6	0
106	1340	16.7	0
106	1340	16.8	0
106	1340	16.9	0
106	1340	17	0
106	1340	17.1	0
106	1340	17.2	0
106	1340	17.3	0
106	1340	17.4	0
106	1340	17.5	0
106	1340	17.6	0
106	1340	17.7	0
106	1340	17.8	0
106	1340	17.9	0
106	1340	18	0
106	1340	18.1	0
106	1340	18.2	0
106	1340	18.3	0
106	1340	18.4	0
106	1340	18.5	0
106	1340	18.6	0
106	1340	18.7	0
106	1340	18.8	0
106	1340	18.9	0
106	1340	19	0
106	1340	19.1	0
106	1340	19.2	0
106	1340	19.3	0
106	1340	19.4	0
106	1340	19.5	0
106	1340	19.6	0
106	1340	19.7	0
106	1340	19.8	0
106	1340	19.9	0
106	1340	20	0
106	1340	20.1	0
106	1340	20.2	0
106	1340	20.3	0
106	1340	20.4	0
106	1340	20.5	0
106	1340	20.6	0
106	1340	20.7	0
106	1340	20.8	0
106	1340	20.9	0
106	1340	21	0
106	1340	21.1	0
106	1340	21.2	0
106	1340	21.3	0
106	1340	21.4	0
106	1340	21.5	0
106	1340	21.6	0
106	1340	21.7	0
106	1340	21.8	0
106	1340	21.9	0
106	1340	22	0
106	1340	22.1	0
106	1340	22.2	0
106	1340	22.3	0
106	1340	22.4	0
106	1340	22.5	0
106	1340	22.6	0
106	1340	22.7	0
106	1340	22.8	0
106	1340	22.9	0
106	1340	23	0
106	1340	23.1	0
106	1340	23.2	0
106	1340	23.3	0
106	1340	23.4	0
106	1340	23.5	0
106	1340	23.6	0
106	1340	23.7	0
106	1340	23.8	0
106	1340	23.9	0
106	1340	24	0
106	1340	24.1	0
106	1340	24.2	0
106	1340	24.3	0
106	1340	24.4	0
106	1340	24.5	0
106	1340	24.6	0
106	1340	24.7	0
106	1340	24.8	0
106	1340	24.9	0
106	1340	25	0
106	1340	25.1	0
106	1340	25.2	0
106	1340	25.3	0
106	1340	25.4	0
106	1340	25.5	0
106	1340	25.6	0
106	1340	25.7	0
106	1340	25.8	0
106	1340	25.9	0
106	1340	26	0
106	1340	26.1	0
106	1340	26.2	0
106	1340	26.3	0
106	1340	26.4	0
106	1340	26.5	0
106	1340	26.6	0
106	1340	26.7	0
106	1340	26.8	0
106	1340	26.9	0
106	1340	27	0
106	1340	27.1	0
106	1340	27.2	0
106	1340	27.3	0
106	1340	27.4	0
106	1340	27.5	0
106	1340	27.6	0
106	1340	27.7	0
106	1340	27.8	0
106	1340	27.9	0
106	1340	28	0
106	1340	28.1	0
106	1340	28.2	0
106	1340	28.3	0
106	1340	28.4	0
106	1340	28.5	0
106	1340	28.6	0
106	1340	28.7	0
106	1340	28.8	0
106	1340	28.9	0
106	1340	29	0
106	1340	29.1	0
106	1340	29.2	0
106	1340	29.3	0
106	1340	29.4	0
106	1340	29.5	0
106	1340	29.6	0
106	1340	29.7	0
106	1340	29.8	0
106	1340	29.9	0
106	1340	30	0
106	1340	30.1	0
106	1340	30.2	0
106	1340	30.3	0
106	1340	30.4	0
106	1340	30.5	0
106	1340	30.6	0
106	1340	30.7	0
106	1340	30.8	0
106	1340	30.9	0
106	1340	31	0
106	1340	31.1	0
106	1340	31.2	0
106	1340	31.3	0
106	1340	31.4	0
106	1340	31.5	0
106	1340	31.6	0
106	1340	31.7	0
106	1340	31.8	0
106	1340	31.9	0
106	1340	32	0
106	1340	32.1	0
106	1340	32.2	0
106	1340	32.3	0
106	1340	32.4	0
106	1340	32.5	0
106	1340	32.6	0
106	1340	32.7	0
106	1340	32.8	0
106	1340	32.9	0
106	1340	33	0
106	1340	33.1	0
106	1340	33.2	0
106	1340	33.3	0
106	1340	33.4	0
106	1340	33.5	0
106	1340	33.6	0
106	1340	33.7	0
106	1340	33.8	0
106	1340	33.9	0
106	1340	34	0
106	1340	34.1	0
106	1340	34.2	0
106	1340	34.3	0
106	1340	34.4	0
106	1340	34.5	0
106	1340	34.6	0
106	1340	34.7	0
106	1340	34.8	0
106	1340	34.9	0
106	1340	35	0
106	1340	35.1	0
106	1340	35.2	0
106	1340	35.3	0
106	1340	35.4	0
106	1340	35.5	0
106	1340	35.6	0
106	1340	35.7	0
106	1340	35.8	0
106	1340	35.9	0
106	1340	36	0
106	1340	36.1	0
106	1340	36.2	0
106	1340	36.3	0
106	1340	36.4	0
106	1340	36.5	0
106	1340	36.6	0
106	1340	36.7	0
106	1340	36.8	0
106	1340	36.9	0
106	1340	37	0
106	1340	37.1	0
106	1340	37.2	0
106	1340	37.3	0
106	1340	37.4	0
106	1340	37.5	0
106	1340	37.6	0
106	1340	37.7	0
106	1340	37.8	0
106	1340	37.9	0
106	1340	38	0
106	1340	38.1	0
106	1340	38.2	0
106	1340	38.3	0
106	1340	38.4	0
106	1340	38.5	0
106	1340	38.6	0
106	1340	38.7	0
106	1340	38.8	0
106	1340	38.9	0
106	1340	39	0
106	1340	39.1	0
106	1340	39.2	0
106	1340	39.3	0
106	1340	39.4	0
106	1340	39.5	0
106	1340	39.6	0
106	1340	39.7	0
106	1340	39.8	0
106	1340	39.9	0
106	1340	40	0
106	1340	40.1	0
106	1340	40.2	0
106	1340	40.3	0
106	1340	40.4	0
106	1340	40.5	0
106	1340	40.6	0
106	1340	40.7	0
106	1340	40.8	0
106	1340	40.9	0
106	1340	41	0
106	1340	41.1	0
106	1340	41.2	0
106	1340	41.3	0
106	1340	41.4	0
106	1340	41.5	0
106	1340	41.6	0
106	1340	41.7	0
106	1340	41.8	0
106	1340	41.9	0
106	1340	42	0
106	1340	42.1	0
106	1340	42.2	0
106	1340	42.3	0
106	1340	42.4	0
106	1340	42.5	0
106	1340	42.6	0
106	1340	42.7	0
106	1340	42.8	0
106	1340	42.9	0
106	1340	43	0
106	1340	43.1	0
106	1340	43.2	0
106	1340	43.3	0
106	1340	43.4	0
106	1340	43.5	0
106	1340	43.6	0
106	1340	43.7	0
106	1340	43.8	0
106	1340	43.9	0
106	1340	44	0
106	1340	44.1	0
106	1340	44.2	0
106	1340	44.3	0
106	1340	44.4	0
106	1340	44.5	0
106	1340	44.6	0
106	1340	44.7	0
106	1340	44.8	0
106	1340	44.9	0
106	1340	45	0
106	1340	45.1	0
106	1340	45.2	0
106	1340	45.3	0
106	1340	45.4	0
106	1340	45.5	0
106	1340	45.6	0
106	1340	45.7	0
106	1340	45.8	0
106	1340	45.9	0
106	1340	46	0
106	1340	46.1	0
106	1340	46.2	0
106	1340	46.3	0
106	1340	46.4	0
106	1340	46.5	0
106	1340	46.6	0
106	1340	46.7	0
106	1340	46.8	0
106	1340	46.9	0
106	1340	47	0
106	1340	47.1	0
106	1340	47.2	0
106	1340	47.3	0
106	1340	47.4	0
106	1340	47.5	0
106	1340	47.6	0
106	1340	47.7	0
106	1340	47.8	0
106	1340	47.9	0
106	1340	48	0
106	1340	48.1	0
106	1340	48.2	0
106	1340	48.3	0
106	1340	48.4	0
106	1340	48.5	0
106	1340	48.6	0
106	1340	48.7	0
106	1340	48.8	0
106	1340	48.9	0
106	1340	49	0
106	1340	49.1	0
106	1340	49.2	0
106	1340	49.3	0
106	1340	49.4	0
106	1340	49.5	0
106	1340	49.6	0
106	1340	49.7	0
106	1340	49.8	0
106	1340	49.9	0
106	1340	50	0
106	1340	50.1	0
106	1340	50.2	0
106	1340	50.3	0
106	1340	50.4	0
106	1340	50.5	0
106	1340	50.6	0
106	1340	50.7	0
106	1340	50.8	0
106	1340	50.9	0
106	1340	51	0
106	1340	51.1	0
106	1340	51.2	0
106	1340	51.3	0
106	1340	51.4	0
106	1340	51.5	0
106	1340	51.6	0
106	1340	51.7	0
106	1340	51.8	0
106	1340	51.9	0
106	1340	52	0
106	1340	52.1	0
106	1340	52.2	0
106	1340	52.3	0
106	1340	52.4	0
106	1340	52.5	0
106	1340	52.6	0
106	1340	52.7	0
106	1340	52.8	0
106	1340	52.9	0
106	1340	53	0
106	1340	53.1	0
106	1340	53.2	0
106	1340	53.3	0
106	1340	53.4	0
106	1340	53.5	0
106	1340	53.6	0
106	1340	53.7	0
106	1340	53.8	0
106	1340	53.9	0
106	1340	54	0
106	1340	54.1	0
106	1340	54.2	0
106	1340	54.3	0
106	1340	54.4	0
106	1340	54.5	0
106	1340	54.6	0
106	1340	54.7	0
106	1340	54.8	0
106	1340	54.9	0
106	1340	55	0
106	1340	55.1	0
106	1340	55.2	0
106	1340	55.3	0
106	1340	55.4	0
106	1340	55.5	0
106	1340	55.6	0
106	1340	55.7	0
106	1340	55.8	0
106	1340	55.9	0
106	1340	56	0
106	1340	56.1	0
106	1340	56.2	0
106	1340	56.3	0
106	1340	56.4	0
106	1340	56.5	0
106	1340	56.6	0
106	1340	56.7	0
106	1340	56.8	0
106	1340	56.9	0
106	1340	57	0
106	1340	57.1	0
106	1340	57.2	0
106	1340	57.3	0
106	1340	57.4	0
106	1340	57.5	0
106	1340	57.6	0
106	1340	57.7	0
106	1340	57.8	0
106	1340	57.9	0
106	1340	58	0
106	1340	58.1	0
106	1340	58.2	0
106	1340	58.3	0
106	1340	58.4	0
106	1340	58.5	0
106	1340	58.6	0
106	1340	58.7	0
106	1340	58.8	0
106	1340	58.9	0
106	1340	59	0
106	1340	59.1	0
106	1340	59.2	0
106	1340	59.3	0
106	1340	59.4	0
106	1340	59.5	0
106	1340	59.6	0
106	1340	59.7	0
106	1340	59.8	0
106	1340	59.9	0
106	1340	60	0
106	1340	60.1	0
106	1340	60.2	0
106	1340	60.3	0
106	1340	60.4	0
106	1340	60.5	0
106	1340	60.6	0
106	1340	60.7	0
106	1340	60.8	0
106	1340	60.9	0
106	1340	61	0
106	1340	61.1	0
106	1340	61.2	0
106	1340	61.3	0
106	1340	61.4	0
106	1340	61.5	0
106	1340	61.6	0
106	1340	61.7	0
106	1340	61.8	0
106	1340	61.9	0
106	1340	62	0
106	1340	62.1	0
106	1340	62.2	0
106	1340	62.3	0
106	1340	62.4	0
106	1340	62.5	0
106	1340	62.6	0
106	1340	62.7	0
106	1340	62.8	0
106	1340	62.9	0
106	1340	63	0
106	1340	63.1	0
106	1340	63.2	0
106	1340	63.3	0
106	1340	63.4	0
106	1340	63.5	0
106	1340	63.6	0
106	1340	63.7	0
106	1340	63.8	0
106	1340	63.9	0
106	1340	64	0
106	1340	64.1	0
106	1340	64.2	0
106	1340	64.3	0
106	1340	64.4	0
106	1340	64.5	0
106	1340	64.6	0
106	1340	64.7	0
106	1340	64.8	0
106	1340	64.9	0
106	1340	65	0
106	1340	65.1	0
106	1340	65.2	0
106	1340	65.3	0
106	1340	65.4	0
106	1340	65.5	0
106	1340	65.6	0
106	1340	65.7	0
106	1340	65.8	0
106	1340	65.9	0
106	1340	66	0
106	1340	66.1	0
106	1340	66.2	0
106	1340	66.3	0
106	1340	66.4	0
106	1340	66.5	0
106	1340	66.6	0
106	1340	66.7	0
106	1340	66.8	0
106	1340	66.9	0
106	1340	67	0
106	1340	67.1	0
106	1340	67.2	0
106	1340	67.3	0
106	1340	67.4	0
106	1340	67.5	0
106	1340	67.6	0
106	1340	67.7	0
106	1340	67.8	0
106	1340	67.9	0
106	1340	68	0
106	1340	68.1	0
106	1340	68.2	0
106	1340	68.3	0
106	1340	68.4	0
106	1340	68.5	0
106	1340	68.6	0
106	1340	68.7	0
106	1340	68.8	0
106	1340	68.9	0
106	1340	69	0
106	1340	69.1	0
106	1340	69.2	0
106	1340	69.3	0
106	1340	69.4	0
106	1340	69.5	0
106	1340	69.6	0
106	1340	69.7	0
106	1340	69.8	0
106	1340	69.9	0
106	1340	70	0
106	1340	70.1	0
106	1340	70.2	0
106	1340	70.3	0
106	1340	70.4	0
106	1340	70.5	0
106	1340	70.6	0
106	1340	70.7	0
106	1340	70.8	0
106	1340	70.9	0
106	1340	71	0
106	1340	71.1	0
106	1340	71.2	0
106	1340	71.3	0
106	1340	71.4	0
106	1340	71.5	0
106	1340	71.6	0
106	1340	71.7	0
106	1340	71.8	0
106	1340	71.9	0
106	1340	72	0
106	1340	72.1	0
106	1340	72.2	0
106	1340	72.3	0
106	1340	72.4	0
106	1340	72.5	0
106	1340	72.6	0
106	1340	72.7	0
106	1340	72.8	0
106	1340	72.9	0
106	1340	73	0
106	1340	73.1	0
106	1340	73.2	0
106	1340	73.3	0
106	1340	73.4	0
106	1340	73.5	0
106	1340	73.6	0
106	1340	73.7	0
106	1340	73.8	0
106	1340	73.9	0
106	1340	74	0
106	1340	74.1	0
106	1340	74.2	0
106	1340	74.3	0
106	1340	74.4	0
106	1340	74.5	0
106	1340	74.6	0
106	1340	74.7	0
106	1340	74.8	0
106	1340	74.9	0
106	1340	75	0
106	1340	75.1	0
106	1340	75.2	0
106	1340	75.3	0
106	1340	75.4	0
106	1340	75.5	0
106	1340	75.6	0
106	1340	75.7	0
106	1340	75.8	0
106	1340	75.9	0
106	1340	76	0
106	1340	76.1	0
106	1340	76.2	0
106	1340	76.3	0
106	1340	76.4	0
106	1340	76.5	0
106	1340	76.6	0
106	1340	76.7	0
106	1340	76.8	0
106	1340	76.9	0
106	1340	77	0
106	1340	77.1	0
106	1340	77.2	0
106	1340	77.3	0
106	1340	77.4	0
106	1340	77.5	0
106	1340	77.6	0
106	1340	77.7	0
106	1340	77.8	0
106	1340	77.9	0
106	1340	78	0
106	1340	78.1	0
106	1340	78.2	0
106	1340	78.3	0
106	1340	78.4	0
106	1340	78.5	0
106	1340	78.6	0
106	1340	78.7	0
106	1340	78.8	0
106	1340	78.9	0
106	1340	79	0
106	1340	79.1	0
106	1340	79.2	0
106	1340	79.3	0
106	1340	79.4	0
106	1340	79.5	0
106	1340	79.6	0
106	1340	79.7	0
106	1340	79.8	0
106	1340	79.9	0
106	1340	80	0
106	1340	80.1	0
106	1340	80.2	0
106	1340	80.3	0
106	1340	80.4	0
106	1340	80.5	0
106	1340	80.6	0
106	1340	80.7	0
106	1340	80.8	0
106	1340	80.9	0
106	1340	81	0
106	1340	81.1	0
106	1340	81.2	0
106	1340	81.3	0
106	1340	81.4	0
106	1340	81.5	0
106	1340	81.6	0
106	1340	81.7	0
106	1340	81.8	0
106	1340	81.9	0
106	1340	82	0
106	1340	82.1	0
106	1340	82.2	0
106	1340	82.3	0
106	1340	82.4	0
106	1340	82.5	0
106	1340	82.6	0
106	1340	82.7	0
106	1340	82.8	0
106	1340	82.9	0
106	1340	83	0
106	1340	83.1	0
106	1340	83.2	0
106	1340	83.3	0
106	1340	83.4	0
106	1340	83.5	0
106	1340	83.6	0
106	1340	83.7	0
106	1340	83.8	0
106	1340	83.9	0
106	1340	84	0
106	1340	84.1	0
106	1340	84.2	0
106	1340	84.3	0
106	1340	84.4	0
106	1340	84.5	0
106	1340	84.6	0
106	1340	84.7	0
106	1340	84.8	0
106	1340	84.9	0
106	1340	85	0
106	1340	85.1	0
106	1340	85.2	0
106	1340	85.3	0
106	1340	85.4	0
106	1340	85.5	0
106	1340	85.6	0
106	1340	85.7	0
106	1340	85.8	0
106	1340	85.9	0
106	1340	86	0
106	1340	86.1	0
106	1340	86.2	0
106	1340	86.3	0
106	1340	86.4	0
106	1340	86.5	0
106	1340	86.6	0
106	1340	86.7	0
106	1340	86.8	0
106	1340	86.9	0
106	1340	87	0
106	1340	87.1	0
106	1340	87.2	0
106	1340	87.3	0
106	1340	87.4	0
106	1340	87.5	0
106	1340	87.6	0
106	1340	87.7	0
106	1340	87.8	0
106	1340	87.9	0
106	1340	88	0
106	1340	88.1	0
106	1340	88.2	0
106	1340	88.3	0
106	1340	88.4	0
106	1340	88.5	0
106	1340	88.6	0
106	1340	88.7	0
106	1340	88.8	0
106	1340	88.9	0
106	1340	89	0
106	1340	89.1	0
106	1340	89.2	0
106	1340	89.3	0
106	1340	89.4	0
106	1340	89.5	0
106	1340	89.6	0
106	1340	89.7	0
106	1340	89.8	0
106	1340	89.9	0
106	1340	90	0
106	1340	90.1	0
106	1340	90.2	0
106	1340	90.3	0
106	1340	90.4	0
106	1340	90.5	0
106	1340	90.6	0
106	1340	90.7	0
106	1340	90.8	0
106	1340	90.9	0
106	1340	91	0
106	1340	91.1	0
106	1340	91.2	0
106	1340	91.3	0
106	1340	91.4	0
106	1340	91.5	0
106	1340	91.6	0
106	1340	91.7	0
106	1340	91.8	0
106	1340	91.9	0
106	1340	92	0
106	1340	92.1	0
106	1340	92.2	0
106	1340	92.3	0
106	1340	92.4	0
106	1340	92.5	0
106	1340	92.6	0
106	1340	92.7	0
106	1340	92.8	0
106	1340	92.9	0
106	1340	93	0
106	1340	93.1	0
106	1340	93.2	0
106	1340	93.3	0
106	1340	93.4	0
106	1340	93.5	0
106	1340	93.6	0
106	1340	93.7	0
106	1340	93.8	0
106	1340	93.9	0
106	1340	94	0
106	1340	94.1	0
106	1340	94.2	0
106	1340	94.3	0
106	1340	94.4	0
106	1340	94.5	0
106	1340	94.6	0
106	1340	94.7	0
106	1340	94.8	0
106	1340	94.9	0
106	1340	95	0
106	1340	95.1	0
106	1340	95.2	0
106	1340	95.3	0
106	1340	95.4	0
106	1340	95.5	0
106	1340	95.6	0
106	1340	95.7	0
106	1340	95.8	0
106	1340	95.9	0
106	1340	96	0
106	1340	96.1	0
106	1340	96.2	0
106	1340	96.3	0
106	1340	96.4	0
106	1340	96.5	0
106	1340	96.6	0
106	1340	96.7	0
106	1340	96.8	0
106	1340	96.9	0
106	1340	97	0
106	1340	97.1	0
106	1340	97.2	0
106	1340	97.3	0
106	1340	97.4	0
106	1340	97.5	0
106	1340	97.6	0
106	1340	97.7	0
106	1340	97.8	0
106	1340	97.9	0
106	1340	98	0
106	1340	98.1	0
106	1340	98.2	0
106	1340	98.3	0
106	1340	98.4	0
106	1340	98.5	0
106	1340	98.6	0
106	1340	98.7	0
106	1340	98.8	0
106	1340	98.9	0
106	1340	99	0
106	1340	99.1	0
106	1340	99.2	0
106	1340	99.3	0
106	1340	99.4	0
106	1340	99.5	0
106	1340	99.6	0
106	1340	99.7	0
106	1340	99.8	0
106	1340	99.9	0
106	1340	100	0
106	1340	100.1	0
106	1340	100.2	0
106	1340	100.3	0
106	1340	100.4	0
106	1340	100.5	0
106	1340	100.6	0
106	1340	100.7	0
106	1340	100.8	0
106	1340	100.9	0
106	1340	101	0
106	1340	101.1	0
106	1340	101.2	0
106	1340	101.3	0
106	1340	101.4	0
106	1340	101.5	0
106	1340	101.6	0
106	1340	101.7	0
106	1340	101.8	0
106	1340	101.9	0
106	1340	102	0
106	1340	102.1	0
106	1340	102.2	0
106	1340	102.3	0
106	1340	102.4	0
106	1340	102.5	0
106	1340	102.6	0
106	1340	102.7	0
106	1340	102.8	0
106	1340	102.9	0
106	1340	103	0
106	1340	103.1	0
106	1340	103.2	0
106	1340	103.3	0
106	1340	103.4	0
106	1340	103.5	0
106	1340	103.6	0
106	1340	103.7	0
106	1340	103.8	0
106	1340	103.9	0
106	1340	104	0
106	1340	104.1	0
106	1340	104.2	0
106	1340	104.3	0
106	1340	104.4	0
106	1340	104.5	0
106	1340	104.6	0
106	1340	104.7	0
106	1340	104.8	0
106	1340	104.9	0
106	1340	105	0
106	1340	105.1	0
106	1340	105.2	0
106	1340	105.3	0
106	1340	105.4	0
106	1340	105.5	0
106	1340	105.6	0
106	1340	105.7	0
106	1340	105.8	0
106	1340	105.9	0
106	1340	106	0
106	1340	106.1	0
106	1340	106.2	0
106	1340	106.3	0
106	1340	106.4	0
106	1340	106.5	0
106	1340	106.6	0
106	1340	106.7	0
106	1340	106.8	0
106	1340	106.9	0
106	1340	107	0
106	1340	107.1	0
106	1340	107.2	0
106	1340	107.3	0
106	1340	107.4	0
106	1340	107.5	0
106	1340	107.6	0
106	1340	107.7	0
106	1340	107.8	0
106	1340	107.9	0
106	1340	108	0
106	1340	108.1	0
106	1340	108.2	0
106	1340	108.3	0
106	1340	108.4	0
106	1340	108.5	0
106	1340	108.6	0
106	1340	108.7	0
106	1340	108.8	0
106	1340	108.9	0
106	1340	109	0
106	1340	109.1	0
106	1340	109.2	0
106	1340	109.3	0
106	1340	109.4	0
106	1340	109.5	0
106	1340	109.6	0
106	1340	109.7	0
106	1340	109.8	0
106	1340	109.9	0
106	1340	110	0
106	1340	110.1	0
106	1340	110.2	0
106	1340	110.3	0
106	1340	110.4	0
106	1340	110.5	0
106	1340	110.6	0
106	1340	110.7	0
106	1340	110.8	0
106	1340	110.9	0
106	1340	111	0
106	1340	111.1	0
106	1340	111.2	0
106	1340	111.3	0
106	1340	111.4	0
106	1340	111.5	0
106	1340	111.6	0
106	1340	111.7	0
106	1340	111.8	0
106	1340	111.9	0
106	1340	112	0
106	1340	112.1	0
106	1340	112.2	0
106	1340	112.3	0
106	1340	112.4	0
106	1340	112.5	0
106	1340	112.6	0
106	1340	112.7	0
106	1340	112.8	0
106	1340	112.9	0
106	1340	113	0
106	1340	113.1	0
106	1340	113.2	0
106	1340	113.3	0
106	1340	113.4	0
106	1340	113.5	0
106	1340	113.6	0
106	1340	113.7	0
106	1340	113.8	0
106	1340	113.9	0
106	1340	114	0
106	1340	114.1	0
106	1340	114.2	0
106	1340	114.3	0
106	1340	114.4	0
106	1340	114.5	0
106	1340	114.6	0
106	1340	114.7	0
106	1340	114.8	0
106	1340	114.9	0
106	1340	115	0
106	1340	115.1	0
106	1340	115.2	0
106	1340	115.3	0
106	1340	115.4	0
106	1340	115.5	0
106	1340	115.6	0
106	1340	115.7	0
106	1340	115.8	0
106	1340	115.9	0
106	1340	116	0
106	1340	116.1	0
106	1340	116.2	0
106	1340	116.3	0
106	1340	116.4	0
106	1340	116.5	0
106	1340	116.6	0
106	1340	116.7	0
106	1340	116.8	0
106	1340	116.9	0
106	1340	117	0
106	1340	117.1	0
106	1340	117.2	0
106	1340	117.3	0
106	1340	117.4	0
106	1340	117.5	0
106	1340	117.6	0
106	1340	117.7	0
106	1340	117.8	0
106	1340	117.9	0
106	1340	118	0
106	1340	118.1	0
106	1340	118.2	0
106	1340	118.3	0
106	1340	118.4	0
106	1340	118.5	0
106	1340	118.6	0
106	1340	118.7	0
106	1340	118.8	0
106	1340	118.9	0
106	1340	119	0
106	1340	119.1	0
106	1340	119.2	0
106	1340	119.3	0
106	1340	119.4	0
106	1340	119.5	0
106	1340	119.6	0
106	1340	119.7	0
106	1340	119.8	0
106	1340	119.9	0
106	1340	120	0

