file 97301 1728037690                                           
version 2
run plain-0-20241004-10:24:54-11150
attr configname plain
attr datetime 20241004-10:24:54
attr experiment plain
attr inifile omnetpp.ini
attr iterationvars ""
attr iterationvarsf ""
attr measurement ""
attr network Scenario
attr processid 11150
attr repetition 0
attr replication #0
attr resultdir results
attr runnumber 0
attr seedset 0
param *.node[*].numApps 1
param *.node[*].app[0].typename "\"rondeboschtest.veins_inet.VeinsInetSampleApplication\""
param *.node[*].app[0].interface "\"wlan0\""
param *.node[*].wlan[0].opMode "\"p\""
param *.node[*].wlan[0].radio.typename "\"Ieee80211DimensionalRadio\""
param *.node[*].wlan[0].radio.bandName "\"5.9 GHz\""
param *.node[*].wlan[0].radio.channelNumber 3
param *.node[*].wlan[0].radio.transmitter.power 20mW
param *.node[*].wlan[0].radio.bandwidth "10 MHz"
param *.node[*].wlan[*].radio.antenna.mobility.typename "\"AttachedMobility\""
param *.node[*].wlan[*].radio.antenna.mobility.mobilityModule "\"^.^.^.^.mobility\""
param *.node[*].wlan[*].radio.antenna.mobility.offsetX -2.5m
param *.node[*].wlan[*].radio.antenna.mobility.offsetZ 1.5m
param *.node[*].wlan[*].radio.antenna.mobility.constraintAreaMinX 0m
param *.node[*].wlan[*].radio.antenna.mobility.constraintAreaMaxX 0m
param *.node[*].wlan[*].radio.antenna.mobility.constraintAreaMinY 0m
param *.node[*].wlan[*].radio.antenna.mobility.constraintAreaMaxY 0m
param *.node[*].wlan[*].radio.antenna.mobility.constraintAreaMinZ 0m
param *.node[*].wlan[*].radio.antenna.mobility.constraintAreaMaxZ 0m
param *.node[*].ipv4.configurator.typename "\"HostAutoConfigurator\""
param *.node[*].ipv4.configurator.interfaces "\"wlan0\""
param *.node[*].ipv4.configurator.mcastGroups "\"224.0.0.1\""
param *.node[*].mobility.typename "\"VeinsInetMobility\""
param *.manager.updateInterval 0.1s
param *.manager.host "\"localhost\""
param *.manager.port 9999
param *.manager.autoShutdown true
param *.manager.launchConfig "xmldoc(\"rondebosch.launchd.xml\")"
param *.manager.moduleType "\"rondeboschtest.veins_inet.VeinsInetCar\""
param *.physicalEnvironment.config "xmldoc(\"obstacles.xml\")"
param *.radioMedium.obstacleLoss.typename "\"IdealObstacleLoss\""

vector 0 Scenario.node[0].wlan[0].radio radioMode:vector ETV
attr interpolationmode sample-hold
attr source radioModeChanged
attr title "Radio mode, vector"
vector 1 Scenario.node[0].wlan[0].radio radioChannel:vector ETV
attr interpolationmode sample-hold
attr source radioChannelChanged
attr title "Radio channel, vector"
vector 2 Scenario.node[0].wlan[0].radio receptionState:vector ETV
attr interpolationmode sample-hold
attr source receptionStateChanged
attr title "Radio reception state, vector"
vector 3 Scenario.node[0].wlan[0].mac.dcf.recoveryProcedure contentionWindowChanged:vector ETV
attr interpolationmode sample-hold
attr title "contention window, vector"
vector 4 Scenario.node[1].wlan[0].radio radioMode:vector ETV
attr interpolationmode sample-hold
attr source radioModeChanged
attr title "Radio mode, vector"
vector 5 Scenario.node[1].wlan[0].radio radioChannel:vector ETV
attr interpolationmode sample-hold
attr source radioChannelChanged
attr title "Radio channel, vector"
vector 6 Scenario.node[1].wlan[0].radio receptionState:vector ETV
attr interpolationmode sample-hold
attr source receptionStateChanged
attr title "Radio reception state, vector"
vector 7 Scenario.node[1].wlan[0].mac.dcf.recoveryProcedure contentionWindowChanged:vector ETV
attr interpolationmode sample-hold
attr title "contention window, vector"
vector 8 Scenario.node[2].wlan[0].radio radioMode:vector ETV
attr interpolationmode sample-hold
attr source radioModeChanged
attr title "Radio mode, vector"
vector 9 Scenario.node[2].wlan[0].radio radioChannel:vector ETV
attr interpolationmode sample-hold
attr source radioChannelChanged
attr title "Radio channel, vector"
vector 10 Scenario.node[2].wlan[0].radio receptionState:vector ETV
attr interpolationmode sample-hold
attr source receptionStateChanged
attr title "Radio reception state, vector"
vector 11 Scenario.node[2].wlan[0].mac.dcf.recoveryProcedure contentionWindowChanged:vector ETV
attr interpolationmode sample-hold
attr title "contention window, vector"
vector 12 Scenario.node[3].wlan[0].radio radioMode:vector ETV
attr interpolationmode sample-hold
attr source radioModeChanged
attr title "Radio mode, vector"
vector 13 Scenario.node[3].wlan[0].radio radioChannel:vector ETV
attr interpolationmode sample-hold
attr source radioChannelChanged
attr title "Radio channel, vector"
vector 14 Scenario.node[3].wlan[0].radio receptionState:vector ETV
attr interpolationmode sample-hold
attr source receptionStateChanged
attr title "Radio reception state, vector"
vector 15 Scenario.node[3].wlan[0].mac.dcf.recoveryProcedure contentionWindowChanged:vector ETV
attr interpolationmode sample-hold
attr title "contention window, vector"
vector 16 Scenario.node[0].app[0] packetSent:vector(packetBytes) ETV
attr interpolationmode none
attr source packetSent
attr title "packets sent, vector(packetBytes)"
vector 17 Scenario.node[0].udp packetSent:vector(packetBytes) ETV
attr interpolationmode none
attr source packetSent
attr title "packets sent, vector(packetBytes)"
vector 18 Scenario.node[0].lo[0].lo rcvdPkFromHl:vector(packetBytes) ETV
attr interpolationmode none
attr source packetReceivedFromUpper
attr title "packets received from higher layer, vector(packetBytes)"
vector 19 Scenario.node[0].lo[0].lo passedUpPk:vector(packetBytes) ETV
attr interpolationmode none
attr source packetSentToUpper
attr title "packets passed to higher layer, vector(packetBytes)"
vector 20 Scenario.node[0].wlan[0].mac packetReceivedFromUpper:vector(packetBytes) ETV
attr interpolationmode none
attr title "packets received from upper layer, vector(packetBytes)"
vector 21 Scenario.node[0].wlan[0].mac.dcf.channelAccess.pendingQueue packetPushed:vector(packetBytes) ETV
attr interpolationmode none
attr title "packet pushed, vector(packetBytes)"
vector 22 Scenario.node[0].wlan[0].mac.dcf.channelAccess.pendingQueue queueLength:vector ETV
attr interpolationmode sample-hold
attr source "count(packetPushed) - count(packetPopped) - count(packetRemoved) - count(packetDropped)"
attr title "queue length, vector"
vector 23 Scenario.node[0].wlan[0].mac.dcf.channelAccess.contention backoffPeriodGenerated:vector ETV
attr interpolationmode none
attr title "backoff periods, vector"
vector 24 Scenario.node[0].wlan[0].mac.dcf.channelAccess.contention backoffActive:vector ETV
attr interpolationmode sample-hold
attr source count(backoffStarted)-count(backoffStopped)
attr title "backoff active, vector"
vector 25 Scenario.node[0].udp packetReceived:vector(packetBytes) ETV
attr interpolationmode none
attr source packetReceived
attr title "packets received, vector(packetBytes)"
vector 26 Scenario.node[0].udp passedUpPk:vector(count) ETV
attr interpolationmode none
attr source packetSentToUpper
attr title "packets passed up, vector(count)"
vector 27 Scenario.node[0].app[0] packetReceived:vector(packetBytes) ETV
attr interpolationmode none
attr source packetReceived
attr title "packets received, vector(packetBytes)"
vector 28 Scenario.node[0].app[0] throughput:vector ETV
attr source throughput(packetReceived)
attr title "throughput, vector"
attr unit bps
vector 29 Scenario.node[0].app[0] rcvdPkLifetime:vector ETV
attr interpolationmode none
attr source dataAge(packetReceived)
attr title "received packet lifetime, vector"
attr unit s
vector 30 Scenario.node[0].wlan[0].mac.dcf.channelAccess.pendingQueue packetPopped:vector(packetBytes) ETV
attr interpolationmode none
attr title "packet popped, vector(packetBytes)"
vector 31 Scenario.node[0].wlan[0].mac.dcf.channelAccess.pendingQueue queueingTime:vector ETV
attr interpolationmode none
attr source queueingTime(packetPopped)
attr title "queueing times, vector"
attr unit s
vector 32 Scenario.node[0].wlan[0].mac.dcf.channelAccess.inProgressFrames queueLength:vector ETV
attr interpolationmode sample-hold
attr source "count(packetEnqueued) - count(packetDequeued)"
attr title "queue length, vector"
vector 33 Scenario.node[0].wlan[0].mac.dcf datarateSelected:vector ETV
attr interpolationmode none
attr title "datarates selected, vector"
vector 34 Scenario.node[0].wlan[0].mac packetSentToLower:vector(packetBytes) ETV
attr interpolationmode none
attr title "packets sent to lower layer, vector(packetBytes)"
vector 35 Scenario.node[0].wlan[0].mac.dcf frameSequenceActive:vector ETV
attr interpolationmode sample-hold
attr source count(frameSequenceStarted)-count(frameSequenceFinished)
attr title "frame sequence active, vector"
vector 36 Scenario.node[0].wlan[0].radio transmissionState:vector ETV
attr interpolationmode sample-hold
attr source transmissionStateChanged
attr title "Radio transmission state, vector"
vector 37 Scenario.node[0].wlan[0].mac.dcf packetSentToPeer:vector(packetBytes) ETV
attr interpolationmode none
attr title "packets sent, vector(packetBytes)"
vector 38 Scenario.node[0].wlan[0].mac.dcf packetSentToPeerMulticast:vector(packetBytes) ETV
attr interpolationmode none
attr source ieee80211Multicast(packetSentToPeer)
attr title "packets sent: multicast, vector(packetBytes)"
vector 39 Scenario.node[0].wlan[0].mac.dcf packetSentToPeerWithoutRetry:vector(packetBytes) ETV
attr interpolationmode none
attr source ieee80211NotRetry(packetSentToPeer)
attr title "packets sent: without retry, vector(packetBytes)"
vector 40 Scenario.node[0].wlan[0].mac.dcf.channelAccess.inProgressFrames queueingTime:vector ETV
attr interpolationmode none
attr source queueingTime(packetDequeued)
attr title "queueing times, vector"
vector 41 Scenario.node[3].wlan[0].mac packetReceivedFromLower:vector(packetBytes) ETV
attr interpolationmode none
attr title "packets received from lower layer, vector(packetBytes)"
vector 42 Scenario.node[3].wlan[0].mac.dcf packetReceivedFromPeer:vector(packetBytes) ETV
attr interpolationmode none
attr title "packets received, vector(packetBytes)"
vector 43 Scenario.node[3].wlan[0].mac.dcf packetReceivedFromPeerMulticast:vector(packetBytes) ETV
attr interpolationmode none
attr source ieee80211Multicast(packetReceivedFromPeer)
attr title "packets received: multicast, vector(packetBytes)"
vector 44 Scenario.node[3].wlan[0].mac.dcf packetReceivedFromPeerWithoutRetry:vector(packetBytes) ETV
attr interpolationmode none
attr source ieee80211NotRetry(packetReceivedFromPeer)
attr title "packets received: without retry, vector(packetBytes)"
vector 45 Scenario.node[3].wlan[0].mac packetSentToUpper:vector(packetBytes) ETV
attr interpolationmode none
attr title "packets sent to upper layer, vector(packetBytes)"
vector 46 Scenario.node[3].udp packetReceived:vector(packetBytes) ETV
attr interpolationmode none
attr source packetReceived
attr title "packets received, vector(packetBytes)"
vector 47 Scenario.node[3].udp passedUpPk:vector(count) ETV
attr interpolationmode none
attr source packetSentToUpper
attr title "packets passed up, vector(count)"
vector 48 Scenario.node[3].app[0] packetReceived:vector(packetBytes) ETV
attr interpolationmode none
attr source packetReceived
attr title "packets received, vector(packetBytes)"
vector 49 Scenario.node[3].app[0] throughput:vector ETV
attr source throughput(packetReceived)
attr title "throughput, vector"
attr unit bps
vector 50 Scenario.node[3].app[0] rcvdPkLifetime:vector ETV
attr interpolationmode none
attr source dataAge(packetReceived)
attr title "received packet lifetime, vector"
attr unit s
vector 51 Scenario.node[3].app[0] packetSent:vector(packetBytes) ETV
attr interpolationmode none
attr source packetSent
attr title "packets sent, vector(packetBytes)"
vector 52 Scenario.node[3].udp packetSent:vector(packetBytes) ETV
attr interpolationmode none
attr source packetSent
attr title "packets sent, vector(packetBytes)"
vector 53 Scenario.node[3].lo[0].lo rcvdPkFromHl:vector(packetBytes) ETV
attr interpolationmode none
attr source packetReceivedFromUpper
attr title "packets received from higher layer, vector(packetBytes)"
vector 54 Scenario.node[3].lo[0].lo passedUpPk:vector(packetBytes) ETV
attr interpolationmode none
attr source packetSentToUpper
attr title "packets passed to higher layer, vector(packetBytes)"
vector 55 Scenario.node[3].wlan[0].mac packetReceivedFromUpper:vector(packetBytes) ETV
attr interpolationmode none
attr title "packets received from upper layer, vector(packetBytes)"
vector 56 Scenario.node[3].wlan[0].mac.dcf.channelAccess.pendingQueue packetPushed:vector(packetBytes) ETV
attr interpolationmode none
attr title "packet pushed, vector(packetBytes)"
vector 57 Scenario.node[3].wlan[0].mac.dcf.channelAccess.pendingQueue queueLength:vector ETV
attr interpolationmode sample-hold
attr source "count(packetPushed) - count(packetPopped) - count(packetRemoved) - count(packetDropped)"
attr title "queue length, vector"
vector 58 Scenario.node[3].wlan[0].mac.dcf.channelAccess.contention backoffPeriodGenerated:vector ETV
attr interpolationmode none
attr title "backoff periods, vector"
vector 59 Scenario.node[3].wlan[0].mac.dcf.channelAccess.contention backoffActive:vector ETV
attr interpolationmode sample-hold
attr source count(backoffStarted)-count(backoffStopped)
attr title "backoff active, vector"
vector 60 Scenario.node[2].wlan[0].mac packetReceivedFromLower:vector(packetBytes) ETV
attr interpolationmode none
attr title "packets received from lower layer, vector(packetBytes)"
vector 61 Scenario.node[2].wlan[0].mac.dcf packetReceivedFromPeer:vector(packetBytes) ETV
attr interpolationmode none
attr title "packets received, vector(packetBytes)"
vector 62 Scenario.node[2].wlan[0].mac.dcf packetReceivedFromPeerMulticast:vector(packetBytes) ETV
attr interpolationmode none
attr source ieee80211Multicast(packetReceivedFromPeer)
attr title "packets received: multicast, vector(packetBytes)"
vector 63 Scenario.node[2].wlan[0].mac.dcf packetReceivedFromPeerWithoutRetry:vector(packetBytes) ETV
attr interpolationmode none
attr source ieee80211NotRetry(packetReceivedFromPeer)
attr title "packets received: without retry, vector(packetBytes)"
vector 64 Scenario.node[2].wlan[0].mac packetSentToUpper:vector(packetBytes) ETV
attr interpolationmode none
attr title "packets sent to upper layer, vector(packetBytes)"
vector 65 Scenario.node[2].udp packetReceived:vector(packetBytes) ETV
attr interpolationmode none
attr source packetReceived
attr title "packets received, vector(packetBytes)"
vector 66 Scenario.node[2].udp passedUpPk:vector(count) ETV
attr interpolationmode none
attr source packetSentToUpper
attr title "packets passed up, vector(count)"
vector 67 Scenario.node[2].app[0] packetReceived:vector(packetBytes) ETV
attr interpolationmode none
attr source packetReceived
attr title "packets received, vector(packetBytes)"
vector 68 Scenario.node[2].app[0] throughput:vector ETV
attr source throughput(packetReceived)
attr title "throughput, vector"
attr unit bps
vector 69 Scenario.node[2].app[0] rcvdPkLifetime:vector ETV
attr interpolationmode none
attr source dataAge(packetReceived)
attr title "received packet lifetime, vector"
attr unit s
vector 70 Scenario.node[2].app[0] packetSent:vector(packetBytes) ETV
attr interpolationmode none
attr source packetSent
attr title "packets sent, vector(packetBytes)"
vector 71 Scenario.node[2].udp packetSent:vector(packetBytes) ETV
attr interpolationmode none
attr source packetSent
attr title "packets sent, vector(packetBytes)"
vector 72 Scenario.node[2].lo[0].lo rcvdPkFromHl:vector(packetBytes) ETV
attr interpolationmode none
attr source packetReceivedFromUpper
attr title "packets received from higher layer, vector(packetBytes)"
vector 73 Scenario.node[2].lo[0].lo passedUpPk:vector(packetBytes) ETV
attr interpolationmode none
attr source packetSentToUpper
attr title "packets passed to higher layer, vector(packetBytes)"
vector 74 Scenario.node[2].wlan[0].mac packetReceivedFromUpper:vector(packetBytes) ETV
attr interpolationmode none
attr title "packets received from upper layer, vector(packetBytes)"
vector 75 Scenario.node[2].wlan[0].mac.dcf.channelAccess.pendingQueue packetPushed:vector(packetBytes) ETV
attr interpolationmode none
attr title "packet pushed, vector(packetBytes)"
vector 76 Scenario.node[2].wlan[0].mac.dcf.channelAccess.pendingQueue queueLength:vector ETV
attr interpolationmode sample-hold
attr source "count(packetPushed) - count(packetPopped) - count(packetRemoved) - count(packetDropped)"
attr title "queue length, vector"
vector 77 Scenario.node[2].wlan[0].mac.dcf.channelAccess.contention backoffPeriodGenerated:vector ETV
attr interpolationmode none
attr title "backoff periods, vector"
vector 78 Scenario.node[2].wlan[0].mac.dcf.channelAccess.contention backoffActive:vector ETV
attr interpolationmode sample-hold
attr source count(backoffStarted)-count(backoffStopped)
attr title "backoff active, vector"
vector 79 Scenario.node[3].wlan[0].mac.dcf.channelAccess.pendingQueue packetPopped:vector(packetBytes) ETV
attr interpolationmode none
attr title "packet popped, vector(packetBytes)"
vector 80 Scenario.node[3].wlan[0].mac.dcf.channelAccess.pendingQueue queueingTime:vector ETV
attr interpolationmode none
attr source queueingTime(packetPopped)
attr title "queueing times, vector"
attr unit s
vector 81 Scenario.node[3].wlan[0].mac.dcf.channelAccess.inProgressFrames queueLength:vector ETV
attr interpolationmode sample-hold
attr source "count(packetEnqueued) - count(packetDequeued)"
attr title "queue length, vector"
vector 82 Scenario.node[3].wlan[0].mac.dcf datarateSelected:vector ETV
attr interpolationmode none
attr title "datarates selected, vector"
vector 83 Scenario.node[3].wlan[0].mac packetSentToLower:vector(packetBytes) ETV
attr interpolationmode none
attr title "packets sent to lower layer, vector(packetBytes)"
vector 84 Scenario.node[3].wlan[0].mac.dcf frameSequenceActive:vector ETV
attr interpolationmode sample-hold
attr source count(frameSequenceStarted)-count(frameSequenceFinished)
attr title "frame sequence active, vector"
vector 85 Scenario.node[3].wlan[0].radio transmissionState:vector ETV
attr interpolationmode sample-hold
attr source transmissionStateChanged
attr title "Radio transmission state, vector"
vector 86 Scenario.node[3].wlan[0].mac.dcf packetSentToPeer:vector(packetBytes) ETV
attr interpolationmode none
attr title "packets sent, vector(packetBytes)"
vector 87 Scenario.node[3].wlan[0].mac.dcf packetSentToPeerMulticast:vector(packetBytes) ETV
attr interpolationmode none
attr source ieee80211Multicast(packetSentToPeer)
attr title "packets sent: multicast, vector(packetBytes)"
vector 88 Scenario.node[3].wlan[0].mac.dcf packetSentToPeerWithoutRetry:vector(packetBytes) ETV
attr interpolationmode none
attr source ieee80211NotRetry(packetSentToPeer)
attr title "packets sent: without retry, vector(packetBytes)"
vector 89 Scenario.node[3].wlan[0].mac.dcf.channelAccess.inProgressFrames queueingTime:vector ETV
attr interpolationmode none
attr source queueingTime(packetDequeued)
attr title "queueing times, vector"
vector 90 Scenario.node[0].wlan[0].mac packetReceivedFromLower:vector(packetBytes) ETV
attr interpolationmode none
attr title "packets received from lower layer, vector(packetBytes)"
vector 91 Scenario.node[0].wlan[0].mac.dcf packetReceivedFromPeer:vector(packetBytes) ETV
attr interpolationmode none
attr title "packets received, vector(packetBytes)"
vector 92 Scenario.node[0].wlan[0].mac.dcf packetReceivedFromPeerMulticast:vector(packetBytes) ETV
attr interpolationmode none
attr source ieee80211Multicast(packetReceivedFromPeer)
attr title "packets received: multicast, vector(packetBytes)"
vector 93 Scenario.node[0].wlan[0].mac.dcf packetReceivedFromPeerWithoutRetry:vector(packetBytes) ETV
attr interpolationmode none
attr source ieee80211NotRetry(packetReceivedFromPeer)
attr title "packets received: without retry, vector(packetBytes)"
vector 94 Scenario.node[0].wlan[0].mac packetSentToUpper:vector(packetBytes) ETV
attr interpolationmode none
attr title "packets sent to upper layer, vector(packetBytes)"
vector 95 Scenario.node[2].wlan[0].mac.dcf.channelAccess.pendingQueue packetPopped:vector(packetBytes) ETV
attr interpolationmode none
attr title "packet popped, vector(packetBytes)"
vector 96 Scenario.node[2].wlan[0].mac.dcf.channelAccess.pendingQueue queueingTime:vector ETV
attr interpolationmode none
attr source queueingTime(packetPopped)
attr title "queueing times, vector"
attr unit s
vector 97 Scenario.node[2].wlan[0].mac.dcf.channelAccess.inProgressFrames queueLength:vector ETV
attr interpolationmode sample-hold
attr source "count(packetEnqueued) - count(packetDequeued)"
attr title "queue length, vector"
vector 98 Scenario.node[2].wlan[0].mac.dcf datarateSelected:vector ETV
attr interpolationmode none
attr title "datarates selected, vector"
vector 99 Scenario.node[2].wlan[0].mac packetSentToLower:vector(packetBytes) ETV
attr interpolationmode none
attr title "packets sent to lower layer, vector(packetBytes)"
vector 100 Scenario.node[2].wlan[0].mac.dcf frameSequenceActive:vector ETV
attr interpolationmode sample-hold
attr source count(frameSequenceStarted)-count(frameSequenceFinished)
attr title "frame sequence active, vector"
vector 101 Scenario.node[2].wlan[0].radio transmissionState:vector ETV
attr interpolationmode sample-hold
attr source transmissionStateChanged
attr title "Radio transmission state, vector"
vector 102 Scenario.node[2].wlan[0].mac.dcf packetSentToPeer:vector(packetBytes) ETV
attr interpolationmode none
attr title "packets sent, vector(packetBytes)"
vector 103 Scenario.node[2].wlan[0].mac.dcf packetSentToPeerMulticast:vector(packetBytes) ETV
attr interpolationmode none
attr source ieee80211Multicast(packetSentToPeer)
attr title "packets sent: multicast, vector(packetBytes)"
vector 104 Scenario.node[2].wlan[0].mac.dcf packetSentToPeerWithoutRetry:vector(packetBytes) ETV
attr interpolationmode none
attr source ieee80211NotRetry(packetSentToPeer)
attr title "packets sent: without retry, vector(packetBytes)"
vector 105 Scenario.node[2].wlan[0].mac.dcf.channelAccess.inProgressFrames queueingTime:vector ETV
attr interpolationmode none
attr source queueingTime(packetDequeued)
attr title "queueing times, vector"
53	22164 27 248 248 20.000152249256 20.000152249256 1 128 128 128 16384
54	22191 27 248 248 20.000152249256 20.000152249256 1 128 128 128 16384
41	22218 81 241 329 20.000152249256 20.000887879088 3 158 158 474 74892
83	22299 27 270 270 20.000288249256 20.000288249256 1 158 158 158 24964
55	22326 27 251 251 20.000152249256 20.000152249256 1 130 130 130 16900
45	22353 81 241 329 20.000152249256 20.000887879088 3 130 130 390 50700
82	22434 32 270 270 20.000288249256 20.000288249256 1 12000000 12000000 12000000 1.44e+14
84	22466 50 270 276 20.000288249256 20.000440249256 2 0 1 1 1
44	22516 81 241 329 20.000152249256 20.000887879088 3 158 158 474 74892
43	22597 81 241 329 20.000152249256 20.000887879088 3 158 158 474 74892
42	22678 81 241 329 20.000152249256 20.000887879088 3 158 158 474 74892
88	22759 27 276 276 20.000440249256 20.000440249256 1 158 158 158 24964
87	22786 27 276 276 20.000440249256 20.000440249256 1 158 158 158 24964
86	22813 27 276 276 20.000440249256 20.000440249256 1 158 158 158 24964
80	22840 32 270 270 20.000288249256 20.000288249256 1 0.000136 0.000136 0.000136 1.8496e-08
79	22872 27 270 270 20.000288249256 20.000288249256 1 158 158 158 24964
56	22899 27 251 251 20.000152249256 20.000152249256 1 158 158 158 24964
57	22926 50 251 270 20.000152249256 20.000288249256 2 0 1 1 1
89	22976 32 276 276 20.000440249256 20.000440249256 1 0.000152 0.000152 0.000152 2.3104e-08
81	23008 50 270 276 20.000288249256 20.000440249256 2 0 1 1 1
59	23058 50 251 269 20.000152249256 20.000288249256 2 0 1 1 1
58	23108 25 251 251 20.000152249256 20.000152249256 1 6 6 6 36
15	23133 13 41 41 3.1 3.1 1 15 15 15 225
13	23146 12 41 41 3.1 3.1 1 3 3 3 9
12	23158 86 41 277 3.1 20.000440249256 5 0 3 7 17
14	23244 212 41 328 3.1 20.000887879088 9 0 3 14 32
85	23456 100 271 277 20.000288249256 20.000440249256 4 0 2 4 6
46	23556 108 244 332 20.000152249256 20.000887879088 4 108 108 432 46656
52	23664 27 246 246 20.000152249256 20.000152249256 1 108 108 108 11664
47	23691 100 244 332 20.000152249256 20.000887879088 4 1 4 10 30
50	23791 152 245 333 20.000152249256 20.000887879088 4 0.000152249256 0.000887879088 0.001856125368 1.2752500463378e-06
49	23943 15944 245 1230 0.1 109.1 1091 0 32000 32000 1024000000
48	39887 108 245 333 20.000152249256 20.000887879088 4 100 100 400 40000
51	39995 27 245 245 20.000152249256 20.000152249256 1 100 100 100 10000
18	40022 28 217 225 20 20 2 128 128 256 32768
19	40050 28 217 225 20 20 2 128 128 256 32768
90	40078 54 279 323 20.000440498512 20.000887787988 2 158 158 316 49928
34	40132 41 232 292 20 20.000511498512 2 158 158 316 49928
20	40173 28 220 228 20 20 2 130 130 260 33800
94	40201 54 279 323 20.000440498512 20.000887787988 2 130 130 260 33800
33	40255 51 232 292 20 20.000511498512 2 12000000 12000000 24000000 2.88e+14
35	40306 81 232 298 20 20.000663498512 4 0 1 2 2
93	40387 54 279 323 20.000440498512 20.000887787988 2 158 158 316 49928
92	40441 54 279 323 20.000440498512 20.000887787988 2 158 158 316 49928
91	40495 54 279 323 20.000440498512 20.000887787988 2 158 158 316 49928
39	40549 48 238 298 20.000152 20.000663498512 2 158 158 316 49928
38	40597 48 238 298 20.000152 20.000663498512 2 158 158 316 49928
37	40645 48 238 298 20.000152 20.000663498512 2 158 158 316 49928
31	40693 24 232 232 20 20 2 0 0 0 0
30	40717 28 232 232 20 20 2 158 158 316 49928
21	40745 28 220 228 20 20 2 158 158 316 49928
22	40773 48 220 232 20 20 4 0 2 4 6
40	40821 64 238 298 20.000152 20.000663498512 2 0.000152 0.000663498512 0.000815498512 4.6333427542621e-07
32	40885 68 232 298 20 20.000663498512 4 0 2 4 6
24	40953 118 220 291 20 20.000511498512 6 0 1 3 3
23	41071 31 220 238 20 20.000152 2 4 7 11 65
3	41102 11 2 2 0.1 0.1 1 15 15 15 225
1	41113 10 2 2 0.1 0.1 1 3 3 3 9
0	41123 107 2 299 0.1 20.000663498512 7 0 3 12 30
2	41230 183 2 322 0.1 20.000887787988 9 0 3 11 23
36	41413 162 233 299 20 20.000663498512 8 0 2 8 12
25	41575 82 221 326 20 20.000887787988 4 108 108 432 46656
17	41657 28 215 223 20 20 2 108 108 216 23328
26	41685 74 221 326 20 20.000887787988 4 1 4 10 30
29	41759 100 222 327 20 20.000887787988 4 0 0.000887787988 0.0013282865 9.822064507113e-07
28	41859 16418 222 1260 0.1 112.1 1121 0 32000 32000 1024000000
27	58277 82 222 327 20 20.000887787988 4 100 100 400 40000
16	58359 28 213 222 20 20 2 100 100 200 20000
vector 106 Scenario.node[1].app[0] throughput:vector ETV
attr source throughput(packetReceived)
attr title "throughput, vector"
attr unit bps
4	58529 30 2 2 0.1 0.1 3 0 2 2 4
5	58559 10 2 2 0.1 0.1 1 3 3 3 9
6	58569 10 2 2 0.1 0.1 1 1 1 1 1
7	58579 11 2 2 0.1 0.1 1 15 15 15 225
8	58590 76 2 321 0.1 20.00088714325 5 0 3 7 17
9	58666 10 2 2 0.1 0.1 1 3 3 3 9
10	58676 207 2 321 0.1 20.00088714325 9 0 3 14 32
11	58883 12 2 2 0.1 0.1 1 15 15 15 225
60	58895 80 255 307 20.000152644738 20.00066414325 3 158 158 474 74892
61	58975 80 255 307 20.000152644738 20.00066414325 3 158 158 474 74892
62	59055 80 255 307 20.000152644738 20.00066414325 3 158 158 474 74892
63	59135 80 255 307 20.000152644738 20.00066414325 3 158 158 474 74892
64	59215 80 255 307 20.000152644738 20.00066414325 3 130 130 390 50700
65	59295 107 258 310 20.000152644738 20.00066414325 4 108 108 432 46656
66	59402 99 258 310 20.000152644738 20.00066414325 4 1 4 10 30
67	59501 107 259 311 20.000152644738 20.00066414325 4 100 100 400 40000
68	59608 17666 259 1340 0.1 120 1200 0 32000 32000 1024000000
69	77274 150 259 311 20.000152644738 20.00066414325 4 0.000152644738 0.00066414325 0.00141041782 6.8215494172893e-07
70	77424 27 259 259 20.000152644738 20.000152644738 1 100 100 100 10000
71	77451 27 260 260 20.000152644738 20.000152644738 1 108 108 108 11664
72	77478 27 262 262 20.000152644738 20.000152644738 1 128 128 128 16384
73	77505 27 262 262 20.000152644738 20.000152644738 1 128 128 128 16384
74	77532 27 265 265 20.000152644738 20.000152644738 1 130 130 130 16900
75	77559 27 265 265 20.000152644738 20.000152644738 1 158 158 158 24964
76	77586 49 265 314 20.000152644738 20.00073514325 2 0 1 1 1
77	77635 25 265 265 20.000152644738 20.000152644738 1 8 8 8 64
78	77660 147 265 313 20.000152644738 20.00073514325 6 0 1 3 3
95	77807 26 314 314 20.00073514325 20.00073514325 1 158 158 158 24964
96	77833 37 314 314 20.00073514325 20.00073514325 1 0.000582498512 0.000582498512 0.000582498512 3.3930451648221e-07
97	77870 48 314 320 20.00073514325 20.00088714325 2 0 1 1 1
98	77918 31 314 314 20.00073514325 20.00073514325 1 12000000 12000000 12000000 1.44e+14
99	77949 26 314 314 20.00073514325 20.00073514325 1 158 158 158 24964
100	77975 50 314 320 20.00073514325 20.00088714325 2 0 1 1 1
101	78025 100 315 321 20.00073514325 20.00088714325 4 0 2 4 6
102	78125 27 320 320 20.00088714325 20.00088714325 1 158 158 158 24964
103	78152 27 320 320 20.00088714325 20.00088714325 1 158 158 158 24964
104	78179 27 320 320 20.00088714325 20.00088714325 1 158 158 158 24964
105	78206 32 320 320 20.00088714325 20.00088714325 1 0.000152 0.000152 0.000152 2.3104e-08
106	78238 19062 1340 1340 0.1 120 1200 0 0 0 0

